data_image0
_chemical_formula_structural       C7H3NH2CHC7H3NH2CHC7H3NH2CHC2H2C3H2CHC2H2C3H2CHC2H2C3H2CHC7H3NH2CHC7H3NH2CHC7H3NH2CHC7H3NH2CHC7H3NH2CHC7H3NH2CHC2H2C3H2CHC2H2C3H2CHC2H2C3H2CHC2H2C3H2CHC2H2C3H2CHC2H2C3H2CHC7H3NH2CHC7H3NH2CHC7H3NH2CHC7H3NH2CHC7H3NH2CHC7H3NH2CHC6H3N3C6H3N3C6H3N3C6H3N3C6H3N3C6H3N3C6H3N3C6H3N3C6H3N3C6H3N3C6H3N3C6H3N3C6H3N3C6H3N3C6H3N3C6H3N3C2H2C3H2CHC2H2C3H2CHC2H2C3H2CHC7H3NH2CHC7H3NH2CHC7H3NH2CHC2H2C3H2CHC2H2C3H2CHC2H2C3H2CHC2H2C3H2CHC2H2C3H2CHC2H2C3H2CHC7H3NH2CHC7H3NH2CHC7H3NH2CHC7H3NH2CHC7H3NH2CHC7H3NH2CHC2H2C3H2CHC2H2C3H2CHC2H2C3H2CHC2H2C3H2CHC2H2C3H2CHC2H2C3H2CH
_chemical_formula_sum              "C432 H312 N72"
_cell_length_a       83.8567
_cell_length_b       83.8567
_cell_length_c       14.9721
_cell_angle_alpha    90
_cell_angle_beta     90
_cell_angle_gamma    120

_space_group_name_H-M_alt    "P 1"
_space_group_IT_number       1

loop_
  _space_group_symop_operation_xyz
  'x, y, z'

loop_
  _atom_site_type_symbol
  _atom_site_label
  _atom_site_symmetry_multiplicity
  _atom_site_fract_x
  _atom_site_fract_y
  _atom_site_fract_z
  _atom_site_occupancy
  C   C1        1.0  0.00547  0.14597  0.30213  1.0000
  C   C2        1.0  0.00395  0.13568  0.22462  1.0000
  C   C3        1.0  0.00112  0.11753  0.22907  1.0000
  C   C4        1.0  0.00038  0.10961  0.31446  1.0000
  C   C5        1.0  0.99881  0.09192  0.32522  1.0000
  C   C6        1.0  0.01237  0.08824  0.29094  1.0000
  C   C7        1.0  0.01064  0.07069  0.30009  1.0000
  H   H1        1.0  0.02363  0.09834  0.25831  1.0000
  H   H2        1.0  0.02067  0.06862  0.27319  1.0000
  H   H3        1.0  0.00472  0.14146  0.16328  1.0000
  N   N1        1.0  0.99879  0.10825  0.15107  1.0000
  H   H4        1.0  0.99898  0.11381  0.09367  1.0000
  H   H5        1.0  0.99566  0.09544  0.15003  1.0000
  C   C8        1.0  0.00913  0.16400  0.29447  1.0000
  H   H6        1.0  0.01894  0.17235  0.25226  1.0000
  C   C9        1.0  0.85713  0.86082  0.30308  1.0000
  C   C10       1.0  0.86748  0.86981  0.22597  1.0000
  C   C11       1.0  0.88581  0.88486  0.23082  1.0000
  C   C12       1.0  0.89396  0.89165  0.31637  1.0000
  C   C13       1.0  0.91225  0.90698  0.32812  1.0000
  C   C14       1.0  0.91750  0.92473  0.29465  1.0000
  C   C15       1.0  0.93562  0.93963  0.30556  1.0000
  H   H7        1.0  0.90810  0.92694  0.26149  1.0000
  H   H8        1.0  0.93878  0.95214  0.27936  1.0000
  H   H9        1.0  0.86164  0.86505  0.16449  1.0000
  N   N2        1.0  0.89507  0.89185  0.15284  1.0000
  H   H10       1.0  0.88939  0.88672  0.09535  1.0000
  H   H11       1.0  0.90798  0.90128  0.15176  1.0000
  C   C16       1.0  0.83901  0.84649  0.29519  1.0000
  H   H12       1.0  0.83067  0.84818  0.25392  1.0000
  C   C17       1.0  0.14220  0.99655  0.28448  1.0000
  C   C18       1.0  0.13440  0.99888  0.20522  1.0000
  C   C19       1.0  0.11943  0.00231  0.20672  1.0000
  C   C20       1.0  0.11188  0.00316  0.29063  1.0000
  C   C21       1.0  0.09600  0.00515  0.29978  1.0000
  C   C22       1.0  0.07822  0.98937  0.29940  1.0000
  C   C23       1.0  0.06287  0.99020  0.33233  1.0000
  H   H13       1.0  0.07664  0.97675  0.28426  1.0000
  H   H14       1.0  0.05077  0.97808  0.34134  1.0000
  H   H15       1.0  0.13972  0.99802  0.14492  1.0000
  N   N3        1.0  0.11281  0.00468  0.12792  1.0000
  H   H16       1.0  0.11826  0.00427  0.07112  1.0000
  H   H17       1.0  0.10284  0.00740  0.12573  1.0000
  C   C24       1.0  0.15614  0.99221  0.28060  1.0000
  H   H18       1.0  0.15407  0.98139  0.24441  1.0000
  C   C25       1.0  0.07698  0.29193  0.28679  1.0000
  C   C26       1.0  0.06280  0.27356  0.29681  1.0000
  H   H19       1.0  0.08198  0.29658  0.22395  1.0000
  H   H20       1.0  0.05776  0.26556  0.24082  1.0000
  C   C27       1.0  0.12148  0.36149  0.31843  1.0000
  C   C28       1.0  0.10332  0.35283  0.28386  1.0000
  C   C29       1.0  0.09109  0.33390  0.29650  1.0000
  H   H21       1.0  0.09864  0.36030  0.24997  1.0000
  H   H22       1.0  0.07795  0.32827  0.27223  1.0000
  C   C30       1.0  0.13296  0.38041  0.30652  1.0000
  H   H23       1.0  0.12848  0.38713  0.26862  1.0000
  C   C31       1.0  0.71055  0.78556  0.28645  1.0000
  C   C32       1.0  0.72896  0.78983  0.29630  1.0000
  H   H24       1.0  0.70587  0.78589  0.22364  1.0000
  H   H25       1.0  0.73693  0.79277  0.24022  1.0000
  C   C33       1.0  0.64095  0.76049  0.31862  1.0000
  C   C34       1.0  0.64961  0.75101  0.28390  1.0000
  C   C35       1.0  0.66855  0.75770  0.29645  1.0000
  H   H26       1.0  0.64213  0.73886  0.25003  1.0000
  H   H27       1.0  0.67417  0.75020  0.27202  1.0000
  C   C36       1.0  0.62201  0.75304  0.30681  1.0000
  H   H28       1.0  0.61529  0.74182  0.26905  1.0000
  C   C37       1.0  0.21686  0.92522  0.28684  1.0000
  C   C38       1.0  0.21261  0.93936  0.29647  1.0000
  H   H29       1.0  0.21652  0.92017  0.22411  1.0000
  H   H30       1.0  0.20964  0.94434  0.24028  1.0000
  C   C39       1.0  0.24189  0.88076  0.31849  1.0000
  C   C40       1.0  0.25142  0.89893  0.28408  1.0000
  C   C41       1.0  0.24476  0.91119  0.29697  1.0000
  H   H31       1.0  0.26356  0.90360  0.25011  1.0000
  H   H32       1.0  0.25227  0.92433  0.27267  1.0000
  C   C42       1.0  0.24929  0.86925  0.30634  1.0000
  H   H33       1.0  0.26042  0.87369  0.26802  1.0000
  C   C43       1.0  0.26784  0.05439  0.28837  1.0000
  C   C44       1.0  0.27994  0.06160  0.21453  1.0000
  C   C45       1.0  0.29848  0.07592  0.22365  1.0000
  C   C46       1.0  0.30506  0.08349  0.31012  1.0000
  C   C47       1.0  0.32390  0.09656  0.32692  1.0000
  C   C48       1.0  0.33217  0.11473  0.29343  1.0000
  C   C49       1.0  0.35111  0.12710  0.30614  1.0000
  H   H34       1.0  0.32450  0.11898  0.25816  1.0000
  H   H35       1.0  0.35663  0.14006  0.27985  1.0000
  H   H36       1.0  0.27539  0.05574  0.15290  1.0000
  N   N4        1.0  0.30943  0.08119  0.14975  1.0000
  H   H37       1.0  0.30467  0.07553  0.09178  1.0000
  H   H38       1.0  0.32242  0.09032  0.15243  1.0000
  C   C50       1.0  0.25084  0.03846  0.27782  1.0000
  H   H39       1.0  0.24966  0.02980  0.22921  1.0000
  C   C51       1.0  0.78856  0.73458  0.28950  1.0000
  C   C52       1.0  0.78360  0.72252  0.21541  1.0000
  C   C53       1.0  0.77928  0.70394  0.22402  1.0000
  C   C54       1.0  0.78025  0.69725  0.31024  1.0000
  C   C55       1.0  0.77445  0.67838  0.32662  1.0000
  C   C56       1.0  0.78436  0.67012  0.29321  1.0000
  C   C57       1.0  0.77782  0.65119  0.30600  1.0000
  H   H40       1.0  0.79630  0.67781  0.25812  1.0000
  H   H41       1.0  0.78530  0.64569  0.27991  1.0000
  H   H42       1.0  0.78231  0.72715  0.15394  1.0000
  N   N5        1.0  0.77359  0.69306  0.14991  1.0000
  H   H43       1.0  0.77276  0.69789  0.09203  1.0000
  H   H44       1.0  0.76976  0.68007  0.15222  1.0000
  C   C58       1.0  0.78982  0.75170  0.27950  1.0000
  H   H45       1.0  0.78244  0.75301  0.23078  1.0000
  C   C59       1.0  0.94776  0.21395  0.28917  1.0000
  C   C60       1.0  0.94065  0.21888  0.21507  1.0000
  C   C61       1.0  0.92634  0.22313  0.22372  1.0000
  C   C62       1.0  0.91869  0.22212  0.30998  1.0000
  C   C63       1.0  0.90565  0.22793  0.32649  1.0000
  C   C64       1.0  0.88746  0.21798  0.29329  1.0000
  C   C65       1.0  0.87507  0.22451  0.30627  1.0000
  H   H46       1.0  0.88320  0.20603  0.25828  1.0000
  H   H47       1.0  0.86209  0.21702  0.28031  1.0000
  H   H48       1.0  0.94657  0.22019  0.15359  1.0000
  N   N6        1.0  0.92112  0.22880  0.14965  1.0000
  H   H49       1.0  0.92679  0.22966  0.09176  1.0000
  H   H50       1.0  0.91193  0.23259  0.15200  1.0000
  C   C66       1.0  0.96364  0.21276  0.27921  1.0000
  H   H51       1.0  0.97223  0.21994  0.22979  1.0000
  C   C67       1.0  0.24269  0.45327  0.29552  1.0000
  C   C68       1.0  0.25422  0.45719  0.22014  1.0000
  C   C69       1.0  0.27330  0.46353  0.22853  1.0000
  C   C70       1.0  0.28110  0.46646  0.31577  1.0000
  C   C71       1.0  0.30026  0.47381  0.33086  1.0000
  C   C72       1.0  0.31320  0.49180  0.30236  1.0000
  C   C73       1.0  0.33217  0.49901  0.31709  1.0000
  H   H52       1.0  0.30891  0.49977  0.27024  1.0000
  H   H53       1.0  0.34112  0.51203  0.29482  1.0000
  H   H54       1.0  0.24858  0.45534  0.15757  1.0000
  N   N7        1.0  0.28331  0.46627  0.15266  1.0000
  H   H55       1.0  0.27758  0.46384  0.09393  1.0000
  H   H56       1.0  0.29619  0.46961  0.15447  1.0000
  C   C74       1.0  0.22444  0.44849  0.28434  1.0000
  H   H57       1.0  0.22143  0.45475  0.23611  1.0000
  C   C75       1.0  0.54907  0.78987  0.29561  1.0000
  C   C76       1.0  0.54513  0.79746  0.22020  1.0000
  C   C77       1.0  0.53879  0.81020  0.22853  1.0000
  C   C78       1.0  0.53587  0.81509  0.31576  1.0000
  C   C79       1.0  0.52852  0.82690  0.33080  1.0000
  C   C80       1.0  0.51054  0.82187  0.30226  1.0000
  C   C81       1.0  0.50334  0.83364  0.31696  1.0000
  H   H58       1.0  0.50256  0.80961  0.27014  1.0000
  H   H59       1.0  0.49032  0.82957  0.29466  1.0000
  H   H60       1.0  0.54698  0.79367  0.15765  1.0000
  N   N8        1.0  0.53604  0.81746  0.15264  1.0000
  H   H61       1.0  0.53852  0.81418  0.09394  1.0000
  H   H62       1.0  0.53275  0.82703  0.15446  1.0000
  C   C82       1.0  0.55386  0.77641  0.28448  1.0000
  H   H63       1.0  0.54760  0.76713  0.23627  1.0000
  C   C83       1.0  0.21247  0.75959  0.29544  1.0000
  C   C84       1.0  0.20484  0.74808  0.22005  1.0000
  C   C85       1.0  0.19208  0.72900  0.22843  1.0000
  C   C86       1.0  0.18722  0.72120  0.31567  1.0000
  C   C87       1.0  0.17541  0.70204  0.33076  1.0000
  C   C88       1.0  0.18045  0.68909  0.30229  1.0000
  C   C89       1.0  0.16869  0.67013  0.31705  1.0000
  H   H64       1.0  0.19272  0.69338  0.27020  1.0000
  H   H65       1.0  0.17277  0.66118  0.29482  1.0000
  H   H66       1.0  0.20861  0.75372  0.15749  1.0000
  N   N9        1.0  0.18479  0.71899  0.15257  1.0000
  H   H67       1.0  0.18812  0.72472  0.09381  1.0000
  H   H68       1.0  0.17529  0.70611  0.15437  1.0000
  C   C90       1.0  0.22593  0.77785  0.28426  1.0000
  H   H69       1.0  0.23519  0.78087  0.23594  1.0000
  C   C91       1.0  0.46301  0.26991  0.28269  1.0000
  C   C92       1.0  0.45651  0.25098  0.29183  1.0000
  H   H70       1.0  0.46531  0.27537  0.21963  1.0000
  H   H71       1.0  0.45439  0.24327  0.23537  1.0000
  C   C93       1.0  0.48929  0.33904  0.31430  1.0000
  C   C94       1.0  0.47136  0.32605  0.28449  1.0000
  C   C95       1.0  0.46403  0.30709  0.29897  1.0000
  H   H72       1.0  0.46331  0.33028  0.25254  1.0000
  H   H73       1.0  0.45095  0.29812  0.27734  1.0000
  C   C96       1.0  0.49587  0.35772  0.30053  1.0000
  H   H74       1.0  0.48904  0.36137  0.25850  1.0000
  C   C97       1.0  0.80877  0.53930  0.28273  1.0000
  C   C98       1.0  0.79632  0.54578  0.29190  1.0000
  H   H75       1.0  0.81192  0.53700  0.21966  1.0000
  H   H76       1.0  0.79073  0.54790  0.23547  1.0000
  C   C99       1.0  0.85162  0.51302  0.31420  1.0000
  C   C100      1.0  0.85656  0.53095  0.28441  1.0000
  C   C101      1.0  0.84492  0.53828  0.29891  1.0000
  H   H77       1.0  0.86883  0.53900  0.25241  1.0000
  H   H78       1.0  0.84903  0.55136  0.27728  1.0000
  C   C102      1.0  0.86371  0.50644  0.30043  1.0000
  H   H79       1.0  0.87418  0.51326  0.25832  1.0000
  C   C103      1.0  0.73237  0.19356  0.28272  1.0000
  C   C104      1.0  0.75130  0.20602  0.29187  1.0000
  H   H80       1.0  0.72691  0.19039  0.21966  1.0000
  H   H81       1.0  0.75901  0.21159  0.23541  1.0000
  C   C105      1.0  0.66325  0.15070  0.31430  1.0000
  C   C106      1.0  0.67624  0.14577  0.28446  1.0000
  C   C107      1.0  0.69521  0.15740  0.29896  1.0000
  H   H82       1.0  0.67202  0.13350  0.25243  1.0000
  H   H83       1.0  0.70418  0.15330  0.27726  1.0000
  C   C108      1.0  0.64458  0.13861  0.30055  1.0000
  H   H84       1.0  0.64093  0.12814  0.25843  1.0000
  C   C109      1.0  0.14544  0.52914  0.28056  1.0000
  C   C110      1.0  0.13935  0.54188  0.29069  1.0000
  H   H85       1.0  0.14661  0.52521  0.21723  1.0000
  H   H86       1.0  0.13620  0.54675  0.23464  1.0000
  C   C111      1.0  0.16500  0.48080  0.30896  1.0000
  C   C112      1.0  0.17607  0.49918  0.27899  1.0000
  C   C113      1.0  0.17085  0.51248  0.29421  1.0000
  H   H87       1.0  0.18824  0.50318  0.24645  1.0000
  H   H88       1.0  0.17931  0.52568  0.27255  1.0000
  C   C114      1.0  0.17095  0.46819  0.29496  1.0000
  H   H89       1.0  0.18130  0.47156  0.25247  1.0000
  C   C115      1.0  0.47319  0.61678  0.28048  1.0000
  C   C116      1.0  0.46043  0.59795  0.29057  1.0000
  H   H90       1.0  0.47712  0.62189  0.21716  1.0000
  H   H91       1.0  0.45557  0.58993  0.23452  1.0000
  C   C117      1.0  0.52157  0.68468  0.30895  1.0000
  C   C118      1.0  0.50319  0.67737  0.27895  1.0000
  C   C119      1.0  0.48987  0.65885  0.29420  1.0000
  H   H92       1.0  0.49919  0.68556  0.24647  1.0000
  H   H93       1.0  0.47667  0.65412  0.27252  1.0000
  C   C120      1.0  0.53418  0.70323  0.29494  1.0000
  H   H94       1.0  0.53080  0.71022  0.25257  1.0000
  C   C121      1.0  0.38558  0.85685  0.28053  1.0000
  C   C122      1.0  0.40441  0.86294  0.29067  1.0000
  H   H95       1.0  0.38047  0.85568  0.21720  1.0000
  H   H96       1.0  0.41244  0.86610  0.23463  1.0000
  C   C123      1.0  0.31769  0.83732  0.30882  1.0000
  C   C124      1.0  0.32500  0.82624  0.27888  1.0000
  C   C125      1.0  0.34352  0.83146  0.29416  1.0000
  H   H97       1.0  0.31682  0.81407  0.24635  1.0000
  H   H98       1.0  0.34826  0.82299  0.27251  1.0000
  C   C126      1.0  0.29914  0.83137  0.29480  1.0000
  H   H99       1.0  0.29216  0.82104  0.25220  1.0000
  C   C127      1.0  0.54741  0.13652  0.29271  1.0000
  C   C128      1.0  0.53991  0.14059  0.21741  1.0000
  C   C129      1.0  0.52739  0.14720  0.22595  1.0000
  C   C130      1.0  0.52192  0.14936  0.31324  1.0000
  C   C131      1.0  0.50851  0.15471  0.32848  1.0000
  C   C132      1.0  0.49013  0.14348  0.29964  1.0000
  C   C133      1.0  0.47687  0.14878  0.31508  1.0000
  H   H100      1.0  0.48626  0.13137  0.26693  1.0000
  H   H101      1.0  0.46373  0.14035  0.29267  1.0000
  H   H102      1.0  0.54366  0.13871  0.15481  1.0000
  N   N10       1.0  0.52132  0.15148  0.15023  1.0000
  H   H103      1.0  0.52557  0.15024  0.09148  1.0000
  H   H104      1.0  0.51358  0.15704  0.15230  1.0000
  C   C134      1.0  0.55841  0.12867  0.28146  1.0000
  H   H105      1.0  0.55528  0.11955  0.23237  1.0000
  C   C135      1.0  0.59095  0.45490  0.29258  1.0000
  C   C136      1.0  0.60253  0.46238  0.21730  1.0000
  C   C137      1.0  0.62166  0.47491  0.22590  1.0000
  C   C138      1.0  0.62927  0.48039  0.31320  1.0000
  C   C139      1.0  0.64802  0.49378  0.32850  1.0000
  C   C140      1.0  0.65519  0.51218  0.29977  1.0000
  C   C141      1.0  0.67375  0.52543  0.31525  1.0000
  H   H106      1.0  0.64694  0.51605  0.26710  1.0000
  H   H107      1.0  0.67846  0.53858  0.29292  1.0000
  H   H108      1.0  0.59692  0.45862  0.15469  1.0000
  N   N11       1.0  0.63202  0.48096  0.15022  1.0000
  H   H109      1.0  0.62653  0.47679  0.09141  1.0000
  H   H110      1.0  0.64531  0.48879  0.15226  1.0000
  C   C142      1.0  0.57211  0.44389  0.28128  1.0000
  H   H111      1.0  0.56611  0.44702  0.23222  1.0000
  C   C143      1.0  0.86581  0.41139  0.29262  1.0000
  C   C144      1.0  0.86172  0.39981  0.21734  1.0000
  C   C145      1.0  0.85511  0.38067  0.22593  1.0000
  C   C146      1.0  0.85297  0.37306  0.31324  1.0000
  C   C147      1.0  0.84761  0.35431  0.32854  1.0000
  C   C148      1.0  0.85885  0.34715  0.29987  1.0000
  C   C149      1.0  0.85354  0.32859  0.31540  1.0000
  H   H112      1.0  0.87097  0.35540  0.26722  1.0000
  H   H113      1.0  0.86198  0.32388  0.29312  1.0000
  H   H114      1.0  0.86359  0.40542  0.15473  1.0000
  N   N12       1.0  0.85082  0.37032  0.15025  1.0000
  H   H115      1.0  0.85214  0.37581  0.09144  1.0000
  H   H116      1.0  0.84535  0.35703  0.15230  1.0000
  C   C150      1.0  0.87366  0.43023  0.28136  1.0000
  H   H117      1.0  0.88278  0.43622  0.23227  1.0000
  C   C151      1.0  0.04984  0.56132  0.29426  1.0000
  C   C152      1.0  0.03872  0.55745  0.21744  1.0000
  C   C153      1.0  0.01958  0.55090  0.22366  1.0000
  C   C154      1.0  0.01139  0.54781  0.31007  1.0000
  C   C155      1.0  0.99213  0.53974  0.32279  1.0000
  C   C156      1.0  0.98010  0.52154  0.29399  1.0000
  C   C157      1.0  0.96099  0.51345  0.30626  1.0000
  H   H118      1.0  0.98516  0.51406  0.26344  1.0000
  H   H119      1.0  0.95275  0.50030  0.28349  1.0000
  H   H120      1.0  0.04469  0.55954  0.15558  1.0000
  N   N13       1.0  0.00985  0.54809  0.14673  1.0000
  H   H121      1.0  0.01585  0.55063  0.08860  1.0000
  H   H122      1.0  0.99693  0.54459  0.14716  1.0000
  C   C158      1.0  0.06829  0.56692  0.28545  1.0000
  H   H123      1.0  0.07207  0.56088  0.23937  1.0000
  C   C159      1.0  0.44100  0.48898  0.29425  1.0000
  C   C160      1.0  0.44488  0.48174  0.21744  1.0000
  C   C161      1.0  0.45144  0.46915  0.22367  1.0000
  C   C162      1.0  0.45454  0.46407  0.31008  1.0000
  C   C163      1.0  0.46260  0.45286  0.32279  1.0000
  C   C164      1.0  0.48080  0.45903  0.29396  1.0000
  C   C165      1.0  0.48889  0.44801  0.30624  1.0000
  H   H124      1.0  0.48828  0.47156  0.26337  1.0000
  H   H125      1.0  0.50203  0.45291  0.28345  1.0000
  H   H126      1.0  0.44279  0.48562  0.15557  1.0000
  N   N14       1.0  0.45425  0.46224  0.14673  1.0000
  H   H127      1.0  0.45166  0.46565  0.08862  1.0000
  H   H128      1.0  0.45771  0.45279  0.14721  1.0000
  C   C166      1.0  0.43540  0.50183  0.28543  1.0000
  H   H129      1.0  0.44142  0.51163  0.23929  1.0000
  C   C167      1.0  0.51334  0.95249  0.29429  1.0000
  C   C168      1.0  0.52059  0.96360  0.21746  1.0000
  C   C169      1.0  0.53318  0.98275  0.22366  1.0000
  C   C170      1.0  0.53826  0.99093  0.31005  1.0000
  C   C171      1.0  0.54947  0.01020  0.32274  1.0000
  C   C172      1.0  0.54329  0.02223  0.29396  1.0000
  C   C173      1.0  0.55431  0.04134  0.30622  1.0000
  H   H130      1.0  0.53075  0.01717  0.26344  1.0000
  H   H131      1.0  0.54940  0.04958  0.28349  1.0000
  H   H132      1.0  0.51673  0.95762  0.15560  1.0000
  N   N15       1.0  0.54011  0.99246  0.14671  1.0000
  H   H133      1.0  0.53663  0.98648  0.08857  1.0000
  H   H134      1.0  0.54949  0.00539  0.14711  1.0000
  C   C174      1.0  0.50048  0.93403  0.28550  1.0000
  H   H135      1.0  0.49068  0.93024  0.23936  1.0000
  C   C175      1.0  0.02290  0.00289  0.37706  1.0000
  C   C176      1.0  0.00647  0.98567  0.37056  1.0000
  C   C177      1.0  0.98955  0.98435  0.34490  1.0000
  C   C178      1.0  0.98935  0.00087  0.32899  1.0000
  C   C179      1.0  0.00534  0.01836  0.33975  1.0000
  C   C180      1.0  0.02203  0.01910  0.36275  1.0000
  H   H136      1.0  0.97717  0.00018  0.31244  1.0000
  H   H137      1.0  0.03340  0.03163  0.37605  1.0000
  H   H138      1.0  0.00677  0.97405  0.38832  1.0000
  N   N16       1.0  0.03667  0.00430  0.42627  1.0000
  N   N17       1.0  0.97328  0.96865  0.33993  1.0000
  N   N18       1.0  0.00538  0.03433  0.33385  1.0000
  C   C181      1.0  0.98411  0.20359  0.33284  1.0000
  C   C182      1.0  0.98399  0.18670  0.33574  1.0000
  C   C183      1.0  0.00060  0.18621  0.33402  1.0000
  C   C184      1.0  0.01758  0.20308  0.33417  1.0000
  C   C185      1.0  0.01803  0.22014  0.33671  1.0000
  C   C186      1.0  0.00120  0.22016  0.33441  1.0000
  H   H139      1.0  0.02972  0.20295  0.33506  1.0000
  H   H140      1.0  0.00138  0.23247  0.33430  1.0000
  H   H141      1.0  0.97163  0.17463  0.33607  1.0000
  N   N19       1.0  0.96838  0.20394  0.33358  1.0000
  N   N20       1.0  0.99942  0.16972  0.33532  1.0000
  N   N21       1.0  0.03397  0.23604  0.33631  1.0000
  C   C187      1.0  0.79927  0.78154  0.33194  1.0000
  C   C188      1.0  0.81614  0.79835  0.33440  1.0000
  C   C189      1.0  0.81664  0.81548  0.33280  1.0000
  C   C190      1.0  0.79973  0.81552  0.33341  1.0000
  C   C191      1.0  0.78267  0.79889  0.33647  1.0000
  C   C192      1.0  0.78269  0.78205  0.33406  1.0000
  H   H142      1.0  0.79983  0.82777  0.33432  1.0000
  H   H143      1.0  0.77039  0.76992  0.33428  1.0000
  H   H144      1.0  0.82822  0.79808  0.33466  1.0000
  N   N22       1.0  0.79888  0.76541  0.33285  1.0000
  N   N23       1.0  0.83317  0.83084  0.33423  1.0000
  N   N24       1.0  0.76670  0.79885  0.33633  1.0000
  C   C193      1.0  0.22101  0.01798  0.32858  1.0000
  C   C194      1.0  0.20417  0.01795  0.32559  1.0000
  C   C195      1.0  0.18714  0.00127  0.32153  1.0000
  C   C196      1.0  0.18716  0.98436  0.32484  1.0000
  C   C197      1.0  0.20379  0.98405  0.33326  1.0000
  C   C198      1.0  0.22059  0.00096  0.33353  1.0000
  H   H145      1.0  0.17495  0.97217  0.32370  1.0000
  H   H146      1.0  0.23275  0.00089  0.33708  1.0000
  H   H147      1.0  0.20438  0.03027  0.32339  1.0000
  N   N25       1.0  0.23703  0.03376  0.33056  1.0000
  N   N26       1.0  0.17185  0.00248  0.31805  1.0000
  N   N27       1.0  0.20388  0.96817  0.33440  1.0000
  C   C199      1.0  0.16958  0.44026  0.33420  1.0000
  C   C200      1.0  0.15616  0.42140  0.33790  1.0000
  C   C201      1.0  0.16126  0.40763  0.33804  1.0000
  C   C202      1.0  0.18016  0.41308  0.33795  1.0000
  C   C203      1.0  0.19382  0.43185  0.33363  1.0000
  C   C204      1.0  0.18836  0.44529  0.33362  1.0000
  H   H148      1.0  0.18404  0.40328  0.33950  1.0000
  H   H149      1.0  0.19824  0.45894  0.33511  1.0000
  H   H150      1.0  0.14254  0.41768  0.34102  1.0000
  N   N28       1.0  0.16430  0.45282  0.33747  1.0000
  N   N29       1.0  0.14905  0.38967  0.34209  1.0000
  N   N30       1.0  0.21153  0.43670  0.33516  1.0000
  C   C205      1.0  0.56213  0.72980  0.33416  1.0000
  C   C206      1.0  0.58099  0.73524  0.33792  1.0000
  C   C207      1.0  0.59476  0.75412  0.33818  1.0000
  C   C208      1.0  0.58930  0.76756  0.33810  1.0000
  C   C209      1.0  0.57052  0.76244  0.33375  1.0000
  C   C210      1.0  0.55709  0.74354  0.33370  1.0000
  H   H151      1.0  0.59910  0.78124  0.33965  1.0000
  H   H152      1.0  0.54344  0.73977  0.33514  1.0000
  H   H153      1.0  0.58471  0.72534  0.34099  1.0000
  N   N31       1.0  0.54957  0.71196  0.33740  1.0000
  N   N32       1.0  0.61274  0.75987  0.34221  1.0000
  N   N33       1.0  0.56567  0.77530  0.33526  1.0000
  C   C211      1.0  0.27257  0.83270  0.33431  1.0000
  C   C212      1.0  0.26712  0.84611  0.33805  1.0000
  C   C213      1.0  0.24825  0.84100  0.33820  1.0000
  C   C214      1.0  0.23481  0.82210  0.33813  1.0000
  C   C215      1.0  0.23993  0.80845  0.33377  1.0000
  C   C216      1.0  0.25883  0.81391  0.33373  1.0000
  H   H154      1.0  0.22112  0.81821  0.33970  1.0000
  H   H155      1.0  0.26260  0.80404  0.33516  1.0000
  H   H156      1.0  0.27702  0.85973  0.34116  1.0000
  N   N34       1.0  0.29040  0.83798  0.33754  1.0000
  N   N35       1.0  0.24251  0.85321  0.34235  1.0000
  N   N36       1.0  0.22706  0.79074  0.33527  1.0000
  C   C217      1.0  0.44102  0.16997  0.33595  1.0000
  C   C218      1.0  0.42218  0.15652  0.33206  1.0000
  C   C219      1.0  0.40838  0.16157  0.33217  1.0000
  C   C220      1.0  0.41377  0.18046  0.33269  1.0000
  C   C221      1.0  0.43253  0.19414  0.33719  1.0000
  C   C222      1.0  0.44601  0.18874  0.33693  1.0000
  H   H157      1.0  0.40394  0.18430  0.33146  1.0000
  H   H158      1.0  0.45965  0.19864  0.33567  1.0000
  H   H159      1.0  0.41848  0.14291  0.32869  1.0000
  N   N37       1.0  0.45359  0.16472  0.33248  1.0000
  N   N38       1.0  0.39044  0.14931  0.32822  1.0000
  N   N39       1.0  0.43733  0.21184  0.33633  1.0000
  C   C223      1.0  0.73079  0.56125  0.33597  1.0000
  C   C224      1.0  0.73618  0.58009  0.33204  1.0000
  C   C225      1.0  0.75504  0.59389  0.33219  1.0000
  C   C226      1.0  0.76853  0.58849  0.33273  1.0000
  C   C227      1.0  0.76344  0.56973  0.33730  1.0000
  C   C228      1.0  0.74457  0.55625  0.33705  1.0000
  H   H160      1.0  0.78220  0.59832  0.33142  1.0000
  H   H161      1.0  0.74083  0.54261  0.33581  1.0000
  H   H162      1.0  0.72627  0.58379  0.32863  1.0000
  N   N40       1.0  0.71297  0.54867  0.33251  1.0000
  N   N41       1.0  0.76071  0.61183  0.32804  1.0000
  N   N42       1.0  0.77634  0.56493  0.33643  1.0000
  C   C229      1.0  0.83227  0.27157  0.33583  1.0000
  C   C230      1.0  0.84572  0.26617  0.33186  1.0000
  C   C231      1.0  0.84065  0.24732  0.33193  1.0000
  C   C232      1.0  0.82177  0.23383  0.33246  1.0000
  C   C233      1.0  0.80809  0.23891  0.33704  1.0000
  C   C234      1.0  0.81350  0.25779  0.33684  1.0000
  H   H163      1.0  0.81792  0.22015  0.33120  1.0000
  H   H164      1.0  0.80360  0.26154  0.33568  1.0000
  H   H165      1.0  0.85933  0.27609  0.32848  1.0000
  N   N43       1.0  0.83753  0.28939  0.33241  1.0000
  N   N44       1.0  0.85291  0.24165  0.32788  1.0000
  N   N45       1.0  0.79040  0.22601  0.33621  1.0000
  C   C235      1.0  0.09854  0.58676  0.33447  1.0000
  C   C236      1.0  0.11016  0.60599  0.33659  1.0000
  C   C237      1.0  0.12954  0.61396  0.33756  1.0000
  C   C238      1.0  0.13719  0.60229  0.33568  1.0000
  C   C239      1.0  0.12576  0.58297  0.33801  1.0000
  C   C240      1.0  0.10645  0.57534  0.33632  1.0000
  H   H166      1.0  0.15121  0.60791  0.33497  1.0000
  H   H167      1.0  0.09805  0.56134  0.33595  1.0000
  H   H168      1.0  0.10443  0.61428  0.33474  1.0000
  N   N46       1.0  0.08048  0.57997  0.33399  1.0000
  N   N47       1.0  0.14077  0.63210  0.33458  1.0000
  N   N48       1.0  0.13315  0.57216  0.33656  1.0000
  C   C241      1.0  0.41556  0.51225  0.33439  1.0000
  C   C242      1.0  0.39632  0.50462  0.33663  1.0000
  C   C243      1.0  0.38836  0.51605  0.33747  1.0000
  C   C244      1.0  0.40002  0.53536  0.33557  1.0000
  C   C245      1.0  0.41935  0.54325  0.33790  1.0000
  C   C246      1.0  0.42697  0.53157  0.33623  1.0000
  H   H169      1.0  0.39440  0.54376  0.33490  1.0000
  H   H170      1.0  0.44098  0.53718  0.33584  1.0000
  H   H171      1.0  0.38803  0.49060  0.33472  1.0000
  N   N49       1.0  0.42235  0.50097  0.33396  1.0000
  N   N50       1.0  0.37021  0.50912  0.33458  1.0000
  N   N51       1.0  0.43016  0.56145  0.33646  1.0000
  C   C247      1.0  0.49009  0.90379  0.33452  1.0000
  C   C248      1.0  0.49772  0.89218  0.33662  1.0000
  C   C249      1.0  0.48630  0.87279  0.33756  1.0000
  C   C250      1.0  0.46699  0.86513  0.33570  1.0000
  C   C251      1.0  0.45909  0.87657  0.33806  1.0000
  C   C252      1.0  0.47077  0.89588  0.33638  1.0000
  H   H172      1.0  0.45859  0.85112  0.33498  1.0000
  H   H173      1.0  0.46516  0.90427  0.33602  1.0000
  H   H174      1.0  0.51174  0.89791  0.33476  1.0000
  N   N52       1.0  0.50136  0.92185  0.33406  1.0000
  N   N53       1.0  0.49323  0.86156  0.33456  1.0000
  N   N54       1.0  0.44090  0.86917  0.33662  1.0000
  C   C253      1.0  0.58647  0.09767  0.33677  1.0000
  C   C254      1.0  0.60576  0.10936  0.33889  1.0000
  C   C255      1.0  0.61371  0.12874  0.33852  1.0000
  C   C256      1.0  0.60205  0.13637  0.33858  1.0000
  C   C257      1.0  0.58275  0.12493  0.33317  1.0000
  C   C258      1.0  0.57513  0.10560  0.33285  1.0000
  H   H175      1.0  0.60765  0.15039  0.33989  1.0000
  H   H176      1.0  0.56111  0.09722  0.33147  1.0000
  H   H177      1.0  0.61413  0.10376  0.34060  1.0000
  N   N55       1.0  0.57820  0.07944  0.33475  1.0000
  N   N56       1.0  0.63185  0.13992  0.34229  1.0000
  N   N57       1.0  0.57200  0.13237  0.33384  1.0000
  C   C259      1.0  0.51305  0.41584  0.33686  1.0000
  C   C260      1.0  0.50545  0.39654  0.33891  1.0000
  C   C261      1.0  0.51687  0.38859  0.33844  1.0000
  C   C262      1.0  0.53618  0.40026  0.33844  1.0000
  C   C263      1.0  0.54402  0.41955  0.33305  1.0000
  C   C264      1.0  0.53232  0.42718  0.33281  1.0000
  H   H178      1.0  0.54458  0.39465  0.33977  1.0000
  H   H179      1.0  0.53796  0.44120  0.33148  1.0000
  H   H180      1.0  0.49147  0.38817  0.34067  1.0000
  N   N58       1.0  0.50310  0.42412  0.33482  1.0000
  N   N59       1.0  0.50992  0.37045  0.34223  1.0000
  N   N60       1.0  0.56222  0.43030  0.33370  1.0000
  C   C265      1.0  0.90466  0.48928  0.33675  1.0000
  C   C266      1.0  0.89296  0.49688  0.33886  1.0000
  C   C267      1.0  0.87359  0.48546  0.33848  1.0000
  C   C268      1.0  0.86595  0.46615  0.33852  1.0000
  C   C269      1.0  0.87740  0.45831  0.33311  1.0000
  C   C270      1.0  0.89672  0.47001  0.33283  1.0000
  H   H181      1.0  0.85194  0.45775  0.33982  1.0000
  H   H182      1.0  0.90511  0.46437  0.33144  1.0000
  H   H183      1.0  0.89857  0.51086  0.34057  1.0000
  N   N61       1.0  0.92288  0.49923  0.33474  1.0000
  N   N62       1.0  0.86240  0.49241  0.34223  1.0000
  N   N63       1.0  0.86996  0.44012  0.33376  1.0000
  C   C271      1.0  0.00172  0.11990  0.39199  1.0000
  C   C272      1.0  0.00416  0.13774  0.38607  1.0000
  H   H184      1.0  0.00138  0.11463  0.45413  1.0000
  H   H185      1.0  0.00554  0.14489  0.44372  1.0000
  C   C273      1.0  0.99531  0.05617  0.34439  1.0000
  C   C274      1.0  0.98195  0.06006  0.37998  1.0000
  C   C275      1.0  0.98368  0.07759  0.37098  1.0000
  H   H186      1.0  0.97062  0.05005  0.41272  1.0000
  H   H187      1.0  0.97357  0.07971  0.39664  1.0000
  C   C276      1.0  0.99289  0.03847  0.35313  1.0000
  H   H188      1.0  0.98103  0.02861  0.37814  1.0000
  C   C277      1.0  0.88348  0.88262  0.39343  1.0000
  C   C278      1.0  0.86545  0.86749  0.38709  1.0000
  H   H189      1.0  0.88885  0.88720  0.45579  1.0000
  H   H190      1.0  0.85831  0.86160  0.44461  1.0000
  C   C279      1.0  0.94925  0.93743  0.35095  1.0000
  C   C280      1.0  0.94380  0.91968  0.38556  1.0000
  C   C281      1.0  0.92572  0.90482  0.37471  1.0000
  H   H191      1.0  0.95306  0.91731  0.41907  1.0000
  H   H192      1.0  0.92255  0.89222  0.39992  1.0000
  C   C282      1.0  0.96749  0.95176  0.36216  1.0000
  H   H193      1.0  0.97642  0.94879  0.39027  1.0000
  C   C283      1.0  0.11976  0.00090  0.36985  1.0000
  C   C284      1.0  0.13470  0.99769  0.36698  1.0000
  H   H194      1.0  0.11442  0.00120  0.43096  1.0000
  H   H195      1.0  0.13973  0.99571  0.42571  1.0000
  C   C285      1.0  0.06480  0.00688  0.36546  1.0000
  C   C286      1.0  0.08244  0.02287  0.36067  1.0000
  C   C287      1.0  0.09780  0.02204  0.32828  1.0000
  H   H196      1.0  0.08470  0.03487  0.39003  1.0000
  H   H197      1.0  0.11059  0.03349  0.33348  1.0000
  C   C288      1.0  0.05275  0.00601  0.43134  1.0000
  H   H198      1.0  0.05707  0.00651  0.49357  1.0000
  C   C289      1.0  0.05482  0.26665  0.38134  1.0000
  C   C290      1.0  0.06189  0.27868  0.45554  1.0000
  C   C291      1.0  0.07608  0.29730  0.44699  1.0000
  C   C292      1.0  0.08369  0.30404  0.36075  1.0000
  C   C293      1.0  0.09660  0.32294  0.34439  1.0000
  C   C294      1.0  0.11478  0.33137  0.37790  1.0000
  C   C295      1.0  0.12701  0.35035  0.36519  1.0000
  H   H199      1.0  0.11914  0.32378  0.41301  1.0000
  H   H200      1.0  0.13999  0.35596  0.39140  1.0000
  H   H201      1.0  0.05597  0.27402  0.51698  1.0000
  N   N64       1.0  0.08119  0.30816  0.52116  1.0000
  H   H202      1.0  0.07555  0.30328  0.57903  1.0000
  H   H203      1.0  0.09027  0.32117  0.51891  1.0000
  C   C296      1.0  0.03891  0.24958  0.39116  1.0000
  H   H204      1.0  0.03031  0.24824  0.44043  1.0000
  C   C297      1.0  0.73593  0.78881  0.38074  1.0000
  C   C298      1.0  0.72390  0.78378  0.45495  1.0000
  C   C299      1.0  0.70526  0.77932  0.44661  1.0000
  C   C300      1.0  0.69846  0.78017  0.36048  1.0000
  C   C301      1.0  0.67953  0.77416  0.34433  1.0000
  C   C302      1.0  0.67109  0.78390  0.37800  1.0000
  C   C303      1.0  0.65211  0.77716  0.36539  1.0000
  H   H205      1.0  0.67869  0.79585  0.41310  1.0000
  H   H206      1.0  0.64650  0.78451  0.39174  1.0000
  H   H207      1.0  0.72858  0.78253  0.51635  1.0000
  N   N65       1.0  0.69442  0.77356  0.52088  1.0000
  H   H208      1.0  0.69933  0.77280  0.57869  1.0000
  H   H209      1.0  0.68141  0.76961  0.51877  1.0000
  C   C304      1.0  0.75303  0.78999  0.39029  1.0000
  H   H210      1.0  0.75432  0.78257  0.43887  1.0000
  C   C305      1.0  0.21367  0.94742  0.38078  1.0000
  C   C306      1.0  0.21871  0.94046  0.45517  1.0000
  C   C307      1.0  0.22316  0.92628  0.44704  1.0000
  C   C308      1.0  0.22229  0.91860  0.36101  1.0000
  C   C309      1.0  0.22831  0.90570  0.34493  1.0000
  C   C310      1.0  0.21852  0.88751  0.37828  1.0000
  C   C311      1.0  0.22522  0.87524  0.36534  1.0000
  H   H211      1.0  0.20657  0.88315  0.41337  1.0000
  H   H212      1.0  0.21784  0.86226  0.39143  1.0000
  H   H213      1.0  0.21996  0.94643  0.51648  1.0000
  N   N66       1.0  0.22892  0.92122  0.52138  1.0000
  H   H214      1.0  0.22970  0.92692  0.57911  1.0000
  H   H215      1.0  0.23285  0.91214  0.51935  1.0000
  C   C312      1.0  0.21242  0.96330  0.39002  1.0000
  H   H216      1.0  0.21958  0.97193  0.43932  1.0000
  C   C313      1.0  0.29288  0.07661  0.38375  1.0000
  C   C314      1.0  0.27458  0.06231  0.37316  1.0000
  H   H217      1.0  0.29742  0.08159  0.44674  1.0000
  H   H218      1.0  0.26651  0.05716  0.42887  1.0000
  C   C315      1.0  0.36236  0.12171  0.35294  1.0000
  C   C316      1.0  0.35385  0.10356  0.38762  1.0000
  C   C317      1.0  0.33496  0.09119  0.37488  1.0000
  H   H219      1.0  0.36141  0.09899  0.42153  1.0000
  H   H220      1.0  0.32943  0.07806  0.39918  1.0000
  C   C318      1.0  0.38126  0.13331  0.36478  1.0000
  H   H221      1.0  0.38803  0.12899  0.40332  1.0000
  C   C319      1.0  0.78560  0.70937  0.38414  1.0000
  C   C320      1.0  0.78969  0.72772  0.37404  1.0000
  H   H222      1.0  0.78603  0.70477  0.44698  1.0000
  H   H223      1.0  0.79268  0.73574  0.42994  1.0000
  C   C321      1.0  0.76118  0.63991  0.35276  1.0000
  C   C322      1.0  0.75151  0.64841  0.38723  1.0000
  C   C323      1.0  0.75802  0.66730  0.37450  1.0000
  H   H224      1.0  0.73938  0.64084  0.42110  1.0000
  H   H225      1.0  0.75039  0.67281  0.39872  1.0000
  C   C324      1.0  0.75393  0.62102  0.36480  1.0000
  H   H226      1.0  0.74288  0.61427  0.40363  1.0000
  C   C325      1.0  0.92548  0.21680  0.38389  1.0000
  C   C326      1.0  0.93975  0.21276  0.37373  1.0000
  H   H227      1.0  0.92044  0.21636  0.44674  1.0000
  H   H228      1.0  0.94483  0.20983  0.42967  1.0000
  C   C327      1.0  0.88047  0.24117  0.35296  1.0000
  C   C328      1.0  0.89864  0.25086  0.38726  1.0000
  C   C329      1.0  0.91103  0.24437  0.37431  1.0000
  H   H229      1.0  0.90322  0.26301  0.42103  1.0000
  H   H230      1.0  0.92417  0.25200  0.39838  1.0000
  C   C330      1.0  0.86884  0.24841  0.36507  1.0000
  H   H231      1.0  0.87309  0.25942  0.40417  1.0000
  C   C331      1.0  0.26954  0.46242  0.39118  1.0000
  C   C332      1.0  0.25061  0.45591  0.38131  1.0000
  H   H232      1.0  0.27489  0.46466  0.45445  1.0000
  H   H233      1.0  0.24281  0.45373  0.43746  1.0000
  C   C333      1.0  0.33875  0.48849  0.36143  1.0000
  C   C334      1.0  0.32564  0.47061  0.39121  1.0000
  C   C335      1.0  0.30670  0.46339  0.37644  1.0000
  H   H234      1.0  0.32977  0.46248  0.42326  1.0000
  H   H235      1.0  0.29766  0.45032  0.39793  1.0000
  C   C336      1.0  0.35741  0.49490  0.37490  1.0000
  H   H236      1.0  0.36100  0.48780  0.41543  1.0000
  C   C337      1.0  0.53991  0.80757  0.39120  1.0000
  C   C338      1.0  0.54641  0.79515  0.38138  1.0000
  H   H237      1.0  0.53768  0.81070  0.45445  1.0000
  H   H238      1.0  0.54863  0.78956  0.43755  1.0000
  C   C339      1.0  0.51386  0.85073  0.36130  1.0000
  C   C340      1.0  0.53174  0.85550  0.39113  1.0000
  C   C341      1.0  0.53895  0.84377  0.37637  1.0000
  H   H239      1.0  0.53987  0.86775  0.42322  1.0000
  H   H240      1.0  0.55202  0.84779  0.39795  1.0000
  C   C342      1.0  0.50746  0.86299  0.37478  1.0000
  H   H241      1.0  0.51457  0.87368  0.41533  1.0000
  C   C343      1.0  0.19478  0.73275  0.39110  1.0000
  C   C344      1.0  0.20721  0.75167  0.38123  1.0000
  H   H242      1.0  0.19167  0.72740  0.45436  1.0000
  H   H243      1.0  0.21283  0.75948  0.43739  1.0000
  C   C345      1.0  0.15160  0.66356  0.36136  1.0000
  C   C346      1.0  0.14681  0.67667  0.39111  1.0000
  C   C347      1.0  0.15855  0.69561  0.37634  1.0000
  H   H244      1.0  0.13457  0.67255  0.42315  1.0000
  H   H245      1.0  0.15452  0.70466  0.39779  1.0000
  C   C348      1.0  0.13934  0.64490  0.37485  1.0000
  H   H246      1.0  0.12866  0.64132  0.41543  1.0000
  C   C349      1.0  0.45380  0.24292  0.37732  1.0000
  C   C350      1.0  0.45764  0.25431  0.45315  1.0000
  C   C351      1.0  0.46398  0.27341  0.44550  1.0000
  C   C352      1.0  0.46697  0.28134  0.35856  1.0000
  C   C353      1.0  0.47439  0.30053  0.34421  1.0000
  C   C354      1.0  0.49240  0.31336  0.37285  1.0000
  C   C355      1.0  0.49972  0.33235  0.35842  1.0000
  H   H247      1.0  0.50033  0.30897  0.40464  1.0000
  H   H248      1.0  0.51278  0.34122  0.38054  1.0000
  H   H249      1.0  0.45575  0.24858  0.51549  1.0000
  N   N67       1.0  0.46666  0.28330  0.52173  1.0000
  H   H250      1.0  0.46425  0.27749  0.58028  1.0000
  H   H251      1.0  0.47007  0.29619  0.52041  1.0000
  C   C356      1.0  0.44904  0.22466  0.38777  1.0000
  H   H252      1.0  0.45525  0.22158  0.43596  1.0000
  C   C357      1.0  0.79097  0.54848  0.37741  1.0000
  C   C358      1.0  0.79853  0.54464  0.45322  1.0000
  C   C359      1.0  0.81130  0.53832  0.44554  1.0000
  C   C360      1.0  0.81625  0.53534  0.35858  1.0000
  C   C361      1.0  0.82801  0.52793  0.34419  1.0000
  C   C362      1.0  0.82283  0.50992  0.37284  1.0000
  C   C363      1.0  0.83450  0.50260  0.35837  1.0000
  H   H253      1.0  0.81052  0.50199  0.40467  1.0000
  H   H254      1.0  0.83031  0.48954  0.38049  1.0000
  H   H255      1.0  0.79468  0.54653  0.51559  1.0000
  N   N68       1.0  0.81851  0.53563  0.52174  1.0000
  H   H256      1.0  0.81515  0.53809  0.58029  1.0000
  H   H257      1.0  0.82805  0.53229  0.52038  1.0000
  C   C364      1.0  0.77747  0.55323  0.38791  1.0000
  H   H258      1.0  0.76818  0.54702  0.43613  1.0000
  C   C365      1.0  0.75934  0.21138  0.37737  1.0000
  C   C366      1.0  0.74796  0.20382  0.45320  1.0000
  C   C367      1.0  0.72887  0.19104  0.44556  1.0000
  C   C368      1.0  0.72094  0.18609  0.35860  1.0000
  C   C369      1.0  0.70176  0.17431  0.34425  1.0000
  C   C370      1.0  0.68893  0.17949  0.37293  1.0000
  C   C371      1.0  0.66994  0.16782  0.35849  1.0000
  H   H259      1.0  0.69332  0.19180  0.40477  1.0000
  H   H260      1.0  0.66107  0.17200  0.38063  1.0000
  H   H261      1.0  0.75369  0.20767  0.51555  1.0000
  N   N69       1.0  0.71897  0.18383  0.52178  1.0000
  H   H262      1.0  0.72481  0.18716  0.58029  1.0000
  H   H263      1.0  0.70611  0.17426  0.52038  1.0000
  C   C372      1.0  0.77759  0.22488  0.38783  1.0000
  H   H264      1.0  0.78068  0.23416  0.43613  1.0000
  C   C373      1.0  0.13682  0.54720  0.37659  1.0000
  C   C374      1.0  0.14069  0.53952  0.45181  1.0000
  C   C375      1.0  0.14707  0.52681  0.44316  1.0000
  C   C376      1.0  0.14918  0.52133  0.35582  1.0000
  C   C377      1.0  0.15441  0.50784  0.34047  1.0000
  C   C378      1.0  0.14311  0.48945  0.36916  1.0000
  C   C379      1.0  0.14836  0.47614  0.35397  1.0000
  H   H265      1.0  0.13098  0.48563  0.40171  1.0000
  H   H266      1.0  0.13988  0.46301  0.37633  1.0000
  H   H267      1.0  0.13884  0.54328  0.51445  1.0000
  N   N70       1.0  0.15118  0.52060  0.51886  1.0000
  H   H268      1.0  0.14989  0.52478  0.57768  1.0000
  H   H269      1.0  0.15650  0.51265  0.51685  1.0000
  C   C380      1.0  0.12917  0.55836  0.38802  1.0000
  H   H270      1.0  0.11989  0.55514  0.43646  1.0000
  C   C381      1.0  0.45511  0.59009  0.37646  1.0000
  C   C382      1.0  0.46280  0.60163  0.45169  1.0000
  C   C383      1.0  0.47552  0.62072  0.44308  1.0000
  C   C384      1.0  0.48100  0.62832  0.35576  1.0000
  C   C385      1.0  0.49450  0.64705  0.34042  1.0000
  C   C386      1.0  0.51288  0.65412  0.36912  1.0000
  C   C387      1.0  0.52620  0.67268  0.35395  1.0000
  H   H271      1.0  0.51670  0.64581  0.40164  1.0000
  H   H272      1.0  0.53934  0.67733  0.37630  1.0000
  H   H273      1.0  0.45906  0.59602  0.51432  1.0000
  N   N71       1.0  0.48174  0.63104  0.51880  1.0000
  H   H274      1.0  0.47756  0.62556  0.57761  1.0000
  H   H275      1.0  0.48969  0.64431  0.51682  1.0000
  C   C388      1.0  0.44397  0.57127  0.38783  1.0000
  H   H276      1.0  0.44720  0.56522  0.43627  1.0000
  C   C389      1.0  0.41226  0.86548  0.37657  1.0000
  C   C390      1.0  0.40071  0.86164  0.45179  1.0000
  C   C391      1.0  0.38162  0.85526  0.44313  1.0000
  C   C392      1.0  0.37403  0.85313  0.35578  1.0000
  C   C393      1.0  0.35531  0.84790  0.34040  1.0000
  C   C394      1.0  0.34823  0.85920  0.36907  1.0000
  C   C395      1.0  0.32967  0.85395  0.35385  1.0000
  H   H277      1.0  0.35653  0.87133  0.40161  1.0000
  H   H278      1.0  0.32501  0.86243  0.37617  1.0000
  H   H279      1.0  0.40632  0.86350  0.51444  1.0000
  N   N72       1.0  0.37130  0.85116  0.51882  1.0000
  H   H280      1.0  0.37677  0.85242  0.57763  1.0000
  H   H281      1.0  0.35802  0.84579  0.51679  1.0000
  C   C396      1.0  0.43107  0.87316  0.38802  1.0000
  H   H282      1.0  0.43712  0.88244  0.43644  1.0000
  C   C397      1.0  0.52956  0.14544  0.38857  1.0000
  C   C398      1.0  0.54212  0.13911  0.37856  1.0000
  H   H283      1.0  0.52562  0.14663  0.45185  1.0000
  H   H284      1.0  0.54686  0.13583  0.43466  1.0000
  C   C399      1.0  0.48157  0.16539  0.36045  1.0000
  C   C400      1.0  0.49995  0.17639  0.39053  1.0000
  C   C401      1.0  0.51321  0.17112  0.37505  1.0000
  H   H285      1.0  0.50398  0.18854  0.42336  1.0000
  H   H286      1.0  0.52641  0.17952  0.39695  1.0000
  C   C402      1.0  0.46900  0.17137  0.37473  1.0000
  H   H287      1.0  0.47239  0.18173  0.41724  1.0000
  C   C403      1.0  0.61770  0.47277  0.38851  1.0000
  C   C404      1.0  0.59882  0.46021  0.37844  1.0000
  H   H288      1.0  0.62282  0.47671  0.45180  1.0000
  H   H289      1.0  0.59079  0.45548  0.43452  1.0000
  C   C405      1.0  0.68566  0.52072  0.36055  1.0000
  C   C406      1.0  0.67827  0.50233  0.39053  1.0000
  C   C407      1.0  0.65973  0.48907  0.37504  1.0000
  H   H290      1.0  0.68639  0.49829  0.42330  1.0000
  H   H291      1.0  0.65493  0.47586  0.39681  1.0000
  C   C408      1.0  0.70421  0.53328  0.37484  1.0000
  H   H292      1.0  0.71116  0.52988  0.41742  1.0000
  C   C409      1.0  0.85692  0.38463  0.38856  1.0000
  C   C410      1.0  0.86324  0.40351  0.37849  1.0000
  H   H293      1.0  0.85574  0.37951  0.45185  1.0000
  H   H294      1.0  0.86655  0.41154  0.43458  1.0000
  C   C411      1.0  0.83692  0.31669  0.36068  1.0000
  C   C412      1.0  0.82591  0.32408  0.39063  1.0000
  C   C413      1.0  0.83119  0.34261  0.37506  1.0000
  H   H295      1.0  0.81375  0.31596  0.42336  1.0000
  H   H296      1.0  0.82278  0.34741  0.39681  1.0000
  C   C414      1.0  0.83094  0.29815  0.37503  1.0000
  H   H297      1.0  0.82061  0.29120  0.41772  1.0000
  C   C415      1.0  0.02257  0.55182  0.38692  1.0000
  C   C416      1.0  0.04155  0.55853  0.37920  1.0000
  H   H298      1.0  0.01689  0.54939  0.44953  1.0000
  H   H299      1.0  0.04915  0.56082  0.43622  1.0000
  C   C417      1.0  0.95334  0.52325  0.34833  1.0000
  C   C418      1.0  0.96555  0.54139  0.37842  1.0000
  C   C419      1.0  0.98469  0.54951  0.36625  1.0000
  H   H300      1.0  0.96064  0.54897  0.40919  1.0000
  H   H301      1.0  0.99312  0.56270  0.38804  1.0000
  C   C420      1.0  0.93444  0.51575  0.35934  1.0000
  H   H302      1.0  0.92975  0.52338  0.38717  1.0000
  C   C421      1.0  0.45051  0.47121  0.38692  1.0000
  C   C422      1.0  0.44380  0.48349  0.37919  1.0000
  H   H303      1.0  0.45293  0.46796  0.44954  1.0000
  H   H304      1.0  0.44148  0.48878  0.43620  1.0000
  C   C423      1.0  0.47908  0.43056  0.34838  1.0000
  C   C424      1.0  0.46095  0.42465  0.37852  1.0000
  C   C425      1.0  0.45284  0.43566  0.36630  1.0000
  H   H305      1.0  0.45337  0.41215  0.40936  1.0000
  H   H306      1.0  0.43965  0.43091  0.38817  1.0000
  C   C426      1.0  0.48658  0.41916  0.35944  1.0000
  H   H307      1.0  0.47896  0.40684  0.38730  1.0000
  C   C427      1.0  0.53109  0.97977  0.38692  1.0000
  C   C428      1.0  0.51881  0.96078  0.37922  1.0000
  H   H308      1.0  0.53434  0.98545  0.44952  1.0000
  H   H309      1.0  0.51351  0.95319  0.43624  1.0000
  C   C429      1.0  0.57177  0.04899  0.34827  1.0000
  C   C430      1.0  0.57769  0.03677  0.37836  1.0000
  C   C431      1.0  0.56667  0.01764  0.36620  1.0000
  H   H310      1.0  0.59019  0.04169  0.40912  1.0000
  H   H311      1.0  0.57144  0.00921  0.38797  1.0000
  C   C432      1.0  0.58316  0.06788  0.35932  1.0000
  H   H312      1.0  0.59548  0.07258  0.38712  1.0000
