data_image0
_chemical_formula_structural       C2H2C2H2C2H2C2H2C2H2C2H2C4HCH3C4HCH3C4HCH3C4HCH3C4HCH3C4HCH3C4HCH3C4HCH3C4HCH3C4HCH3C4HCH3C4HCH3NC18H12NC18H12NC18H12NC18H12NC18H12NC18H12NC18H12NC18H12NC18H12NC18H12NC18H12NC18H12C4HCH3C4HCH3C4HCH3C4HCH3C4HCH3C4HCH3C2H2C2H2C2H2C2H2C2H2C2H2C2H2C2H2C2H2C2H2C2H2C2H2
_chemical_formula_sum              "C342 H252 N12"
_cell_length_a       64.1951
_cell_length_b       64.1951
_cell_length_c       14.737
_cell_angle_alpha    90
_cell_angle_beta     90
_cell_angle_gamma    120

_space_group_name_H-M_alt    "P 1"
_space_group_IT_number       1

loop_
  _space_group_symop_operation_xyz
  'x, y, z'

loop_
  _atom_site_type_symbol
  _atom_site_label
  _atom_site_symmetry_multiplicity
  _atom_site_fract_x
  _atom_site_fract_y
  _atom_site_fract_z
  _atom_site_occupancy
  C   C1        1.0  0.20249  0.40474  0.28937  1.0000
  C   C2        1.0  0.18973  0.37936  0.28702  1.0000
  H   H1        1.0  0.20024  0.41373  0.23635  1.0000
  H   H2        1.0  0.17871  0.37099  0.23282  1.0000
  C   C3        1.0  0.60492  0.78955  0.28943  1.0000
  C   C4        1.0  0.63030  0.80218  0.28708  1.0000
  H   H3        1.0  0.59593  0.77833  0.23636  1.0000
  H   H4        1.0  0.63867  0.79954  0.23285  1.0000
  C   C5        1.0  0.22011  0.80713  0.28912  1.0000
  C   C6        1.0  0.20748  0.81988  0.28679  1.0000
  H   H5        1.0  0.23133  0.80936  0.23601  1.0000
  H   H6        1.0  0.21010  0.83087  0.23254  1.0000
  C   C7        1.0  0.81582  0.59618  0.28926  1.0000
  C   C8        1.0  0.82857  0.62156  0.28690  1.0000
  H   H7        1.0  0.81806  0.58718  0.23621  1.0000
  H   H8        1.0  0.83959  0.62993  0.23269  1.0000
  C   C9        1.0  0.41341  0.21136  0.28937  1.0000
  C   C10       1.0  0.38803  0.19875  0.28704  1.0000
  H   H9        1.0  0.42240  0.22260  0.23631  1.0000
  H   H10       1.0  0.37966  0.20139  0.23281  1.0000
  C   C11       1.0  0.79818  0.19377  0.28928  1.0000
  C   C12       1.0  0.81081  0.18102  0.28696  1.0000
  H   H11       1.0  0.78696  0.19153  0.23621  1.0000
  H   H12       1.0  0.80818  0.17001  0.23275  1.0000
  C   C13       1.0  0.21792  0.18384  0.34903  1.0000
  C   C14       1.0  0.21494  0.19401  0.26781  1.0000
  C   C15       1.0  0.20255  0.20721  0.26335  1.0000
  C   C16       1.0  0.19132  0.20987  0.34286  1.0000
  H   H13       1.0  0.22177  0.19154  0.20883  1.0000
  C   C17       1.0  0.20305  0.21907  0.17569  1.0000
  H   H14       1.0  0.21638  0.21954  0.12836  1.0000
  H   H15       1.0  0.20761  0.23767  0.18738  1.0000
  H   H16       1.0  0.18558  0.20939  0.14250  1.0000
  C   C18       1.0  0.82577  0.02587  0.34913  1.0000
  C   C19       1.0  0.81564  0.01272  0.26790  1.0000
  C   C20       1.0  0.80245  0.98713  0.26346  1.0000
  C   C21       1.0  0.79975  0.97324  0.34301  1.0000
  H   H17       1.0  0.81812  0.02201  0.20890  1.0000
  C   C22       1.0  0.79062  0.97577  0.17576  1.0000
  H   H18       1.0  0.79014  0.98861  0.12840  1.0000
  H   H19       1.0  0.77202  0.96171  0.18740  1.0000
  H   H20       1.0  0.80032  0.96799  0.14264  1.0000
  C   C23       1.0  0.98377  0.79165  0.34911  1.0000
  C   C24       1.0  0.99693  0.79471  0.26783  1.0000
  C   C25       1.0  0.02251  0.80711  0.26337  1.0000
  C   C26       1.0  0.03641  0.81825  0.34297  1.0000
  H   H21       1.0  0.98763  0.78793  0.20881  1.0000
  C   C27       1.0  0.03387  0.80667  0.17561  1.0000
  H   H22       1.0  0.02103  0.79337  0.12823  1.0000
  H   H23       1.0  0.04793  0.80213  0.18713  1.0000
  H   H24       1.0  0.04163  0.82416  0.14258  1.0000
  C   C28       1.0  0.80042  0.81710  0.34912  1.0000
  C   C29       1.0  0.80348  0.80700  0.26784  1.0000
  C   C30       1.0  0.81587  0.79381  0.26337  1.0000
  C   C31       1.0  0.82703  0.79107  0.34294  1.0000
  H   H25       1.0  0.79668  0.80951  0.20883  1.0000
  C   C32       1.0  0.81543  0.78202  0.17561  1.0000
  H   H26       1.0  0.80213  0.78156  0.12822  1.0000
  H   H27       1.0  0.81089  0.76342  0.18712  1.0000
  H   H28       1.0  0.83293  0.79174  0.14259  1.0000
  C   C33       1.0  0.19256  0.97505  0.34911  1.0000
  C   C34       1.0  0.20266  0.98820  0.26785  1.0000
  C   C35       1.0  0.21585  0.01379  0.26339  1.0000
  C   C36       1.0  0.21856  0.02768  0.34296  1.0000
  H   H29       1.0  0.20016  0.97891  0.20883  1.0000
  C   C37       1.0  0.22764  0.02515  0.17564  1.0000
  H   H30       1.0  0.22812  0.01231  0.12827  1.0000
  H   H31       1.0  0.24624  0.03922  0.18718  1.0000
  H   H32       1.0  0.21791  0.03291  0.14259  1.0000
  C   C38       1.0  0.03454  0.20928  0.34907  1.0000
  C   C39       1.0  0.02138  0.20634  0.26792  1.0000
  C   C40       1.0  0.99579  0.19396  0.26351  1.0000
  C   C41       1.0  0.98191  0.18269  0.34299  1.0000
  H   H33       1.0  0.03067  0.21320  0.20894  1.0000
  C   C42       1.0  0.98442  0.19452  0.17594  1.0000
  H   H34       1.0  0.99726  0.20786  0.12867  1.0000
  H   H35       1.0  0.97038  0.19907  0.18781  1.0000
  H   H36       1.0  0.97662  0.17706  0.14261  1.0000
  C   C43       1.0  0.24649  0.64180  0.35519  1.0000
  C   C44       1.0  0.24200  0.62958  0.27076  1.0000
  C   C45       1.0  0.24026  0.60675  0.26039  1.0000
  C   C46       1.0  0.24483  0.59576  0.33624  1.0000
  H   H37       1.0  0.24007  0.63752  0.21375  1.0000
  C   C47       1.0  0.23261  0.59520  0.16948  1.0000
  H   H38       1.0  0.21686  0.59598  0.14614  1.0000
  H   H39       1.0  0.22752  0.57627  0.16971  1.0000
  H   H40       1.0  0.24715  0.60472  0.12071  1.0000
  C   C48       1.0  0.36765  0.59664  0.35500  1.0000
  C   C49       1.0  0.37982  0.60443  0.27051  1.0000
  C   C50       1.0  0.40265  0.62553  0.26013  1.0000
  C   C51       1.0  0.41369  0.64103  0.33608  1.0000
  H   H41       1.0  0.37186  0.59460  0.21346  1.0000
  C   C52       1.0  0.41416  0.62946  0.16912  1.0000
  H   H42       1.0  0.41334  0.61293  0.14553  1.0000
  H   H43       1.0  0.43310  0.64327  0.16933  1.0000
  H   H44       1.0  0.40465  0.63455  0.12057  1.0000
  C   C53       1.0  0.41312  0.76306  0.35418  1.0000
  C   C54       1.0  0.40525  0.76721  0.26945  1.0000
  C   C55       1.0  0.38413  0.76889  0.25887  1.0000
  C   C56       1.0  0.36869  0.76459  0.33491  1.0000
  H   H45       1.0  0.41502  0.76892  0.21240  1.0000
  C   C57       1.0  0.38007  0.77618  0.16749  1.0000
  H   H46       1.0  0.39656  0.79181  0.14324  1.0000
  H   H47       1.0  0.36625  0.78129  0.16737  1.0000
  H   H48       1.0  0.37493  0.76142  0.11961  1.0000
  C   C58       1.0  0.77176  0.35908  0.35500  1.0000
  C   C59       1.0  0.77616  0.37124  0.27047  1.0000
  C   C60       1.0  0.77788  0.39407  0.26002  1.0000
  C   C61       1.0  0.77338  0.40510  0.33591  1.0000
  H   H49       1.0  0.77802  0.36327  0.21345  1.0000
  C   C62       1.0  0.78544  0.40556  0.16897  1.0000
  H   H50       1.0  0.80115  0.40475  0.14540  1.0000
  H   H51       1.0  0.79054  0.42449  0.16910  1.0000
  H   H52       1.0  0.77083  0.39601  0.12046  1.0000
  C   C63       1.0  0.65058  0.40432  0.35484  1.0000
  C   C64       1.0  0.63841  0.39654  0.27034  1.0000
  C   C65       1.0  0.61559  0.37543  0.25995  1.0000
  C   C66       1.0  0.60456  0.35991  0.33588  1.0000
  H   H53       1.0  0.64637  0.40637  0.21330  1.0000
  C   C67       1.0  0.60408  0.37149  0.16893  1.0000
  H   H54       1.0  0.60488  0.38801  0.14537  1.0000
  H   H55       1.0  0.58514  0.35766  0.16911  1.0000
  H   H56       1.0  0.61361  0.36643  0.12038  1.0000
  C   C68       1.0  0.60517  0.23783  0.35445  1.0000
  C   C69       1.0  0.61301  0.23360  0.26980  1.0000
  C   C70       1.0  0.63413  0.23190  0.25928  1.0000
  C   C71       1.0  0.64959  0.23626  0.33528  1.0000
  H   H57       1.0  0.60322  0.23183  0.21274  1.0000
  C   C72       1.0  0.63815  0.22453  0.16802  1.0000
  H   H58       1.0  0.62166  0.20886  0.14400  1.0000
  H   H59       1.0  0.65199  0.21943  0.16800  1.0000
  H   H60       1.0  0.64326  0.23923  0.11991  1.0000
  N   N1        1.0  0.13909  0.26171  0.35521  1.0000
  C   C73       1.0  0.11323  0.24906  0.35565  1.0000
  C   C74       1.0  0.15204  0.28752  0.35563  1.0000
  C   C75       1.0  0.15209  0.24886  0.35137  1.0000
  C   C76       1.0  0.14719  0.23126  0.28430  1.0000
  C   C77       1.0  0.15951  0.21815  0.28286  1.0000
  C   C78       1.0  0.17815  0.22280  0.34543  1.0000
  C   C79       1.0  0.18286  0.24044  0.41274  1.0000
  C   C80       1.0  0.16992  0.25290  0.41644  1.0000
  C   C81       1.0  0.10023  0.25341  0.28825  1.0000
  C   C82       1.0  0.07483  0.24091  0.28755  1.0000
  C   C83       1.0  0.06083  0.22266  0.35190  1.0000
  C   C84       1.0  0.07427  0.21836  0.41871  1.0000
  C   C85       1.0  0.09971  0.23140  0.42143  1.0000
  C   C86       1.0  0.16443  0.30085  0.27789  1.0000
  C   C87       1.0  0.17701  0.32628  0.27847  1.0000
  C   C88       1.0  0.17807  0.33952  0.35719  1.0000
  C   C89       1.0  0.16565  0.32594  0.43499  1.0000
  C   C90       1.0  0.15278  0.30052  0.43408  1.0000
  H   H61       1.0  0.06672  0.24575  0.23896  1.0000
  H   H62       1.0  0.10931  0.26612  0.23950  1.0000
  H   H63       1.0  0.10844  0.22747  0.47066  1.0000
  H   H64       1.0  0.06569  0.20515  0.46606  1.0000
  H   H65       1.0  0.13399  0.22735  0.23741  1.0000
  H   H66       1.0  0.15433  0.20474  0.23597  1.0000
  H   H67       1.0  0.16425  0.29198  0.21997  1.0000
  H   H68       1.0  0.18593  0.33513  0.22083  1.0000
  H   H69       1.0  0.16550  0.33452  0.49327  1.0000
  H   H70       1.0  0.14398  0.29142  0.49147  1.0000
  H   H71       1.0  0.17390  0.26537  0.46648  1.0000
  H   H72       1.0  0.19604  0.24454  0.45999  1.0000
  N   N2        1.0  0.74795  0.86917  0.35540  1.0000
  C   C91       1.0  0.76061  0.85596  0.35581  1.0000
  C   C92       1.0  0.72213  0.85629  0.35580  1.0000
  C   C93       1.0  0.76079  0.89502  0.35158  1.0000
  C   C94       1.0  0.77843  0.90773  0.28460  1.0000
  C   C95       1.0  0.79151  0.93315  0.28310  1.0000
  C   C96       1.0  0.78684  0.94714  0.34560  1.0000
  C   C97       1.0  0.76919  0.93421  0.41287  1.0000
  C   C98       1.0  0.75674  0.90881  0.41660  1.0000
  C   C99       1.0  0.75631  0.83867  0.28825  1.0000
  C   C100      1.0  0.76881  0.82577  0.28751  1.0000
  C   C101      1.0  0.78702  0.82999  0.35198  1.0000
  C   C102      1.0  0.79127  0.84767  0.41898  1.0000
  C   C103      1.0  0.77823  0.86006  0.42173  1.0000
  C   C104      1.0  0.70881  0.85538  0.27808  1.0000
  C   C105      1.0  0.68337  0.84252  0.27865  1.0000
  C   C106      1.0  0.67014  0.83032  0.35735  1.0000
  C   C107      1.0  0.68372  0.83146  0.43511  1.0000
  C   C108      1.0  0.70914  0.84401  0.43420  1.0000
  H   H73       1.0  0.76402  0.81287  0.23876  1.0000
  H   H74       1.0  0.74363  0.83508  0.23940  1.0000
  H   H75       1.0  0.78211  0.87269  0.47108  1.0000
  H   H76       1.0  0.80446  0.85227  0.46644  1.0000
  H   H77       1.0  0.78233  0.89844  0.23768  1.0000
  H   H78       1.0  0.80493  0.94139  0.23624  1.0000
  H   H79       1.0  0.71767  0.86408  0.22019  1.0000
  H   H80       1.0  0.67453  0.84261  0.22104  1.0000
  H   H81       1.0  0.67514  0.82271  0.49337  1.0000
  H   H82       1.0  0.71824  0.84430  0.49158  1.0000
  H   H83       1.0  0.74425  0.90031  0.46657  1.0000
  H   H84       1.0  0.76506  0.94328  0.46006  1.0000
  N   N3        1.0  0.14048  0.87051  0.35529  1.0000
  C   C109      1.0  0.15368  0.89637  0.35573  1.0000
  C   C110      1.0  0.15335  0.85757  0.35565  1.0000
  C   C111      1.0  0.11463  0.85751  0.35150  1.0000
  C   C112      1.0  0.10191  0.86245  0.28460  1.0000
  C   C113      1.0  0.07649  0.85012  0.28314  1.0000
  C   C114      1.0  0.06251  0.83144  0.34555  1.0000
  C   C115      1.0  0.07544  0.82669  0.41274  1.0000
  C   C116      1.0  0.10084  0.83964  0.41645  1.0000
  C   C117      1.0  0.17099  0.90937  0.28819  1.0000
  C   C118      1.0  0.18388  0.93477  0.28748  1.0000
  C   C119      1.0  0.17966  0.94876  0.35196  1.0000
  C   C120      1.0  0.16198  0.93533  0.41894  1.0000
  C   C121      1.0  0.14959  0.90989  0.42167  1.0000
  C   C122      1.0  0.15425  0.84515  0.27795  1.0000
  C   C123      1.0  0.16712  0.83259  0.27847  1.0000
  C   C124      1.0  0.17934  0.83156  0.35713  1.0000
  C   C125      1.0  0.17822  0.84402  0.43490  1.0000
  C   C126      1.0  0.16566  0.85688  0.43401  1.0000
  H   H85       1.0  0.19679  0.94289  0.23874  1.0000
  H   H86       1.0  0.17458  0.90029  0.23933  1.0000
  H   H87       1.0  0.13696  0.90115  0.47101  1.0000
  H   H88       1.0  0.15738  0.94391  0.46641  1.0000
  H   H89       1.0  0.11120  0.87565  0.23773  1.0000
  H   H90       1.0  0.06825  0.85531  0.23633  1.0000
  H   H91       1.0  0.14553  0.84530  0.22008  1.0000
  H   H92       1.0  0.16701  0.82363  0.22088  1.0000
  H   H93       1.0  0.18699  0.84420  0.49311  1.0000
  H   H94       1.0  0.16539  0.86570  0.49139  1.0000
  H   H95       1.0  0.10934  0.83562  0.46635  1.0000
  H   H96       1.0  0.06637  0.81347  0.45985  1.0000
  N   N4        1.0  0.87923  0.73921  0.35526  1.0000
  C   C127      1.0  0.90510  0.75185  0.35572  1.0000
  C   C128      1.0  0.86628  0.71339  0.35563  1.0000
  C   C129      1.0  0.86624  0.75206  0.35146  1.0000
  C   C130      1.0  0.87120  0.76972  0.28455  1.0000
  C   C131      1.0  0.85888  0.78283  0.28311  1.0000
  C   C132      1.0  0.84020  0.77815  0.34553  1.0000
  C   C133      1.0  0.83544  0.76046  0.41271  1.0000
  C   C134      1.0  0.84838  0.74799  0.41641  1.0000
  C   C135      1.0  0.91809  0.74756  0.28816  1.0000
  C   C136      1.0  0.94349  0.76006  0.28745  1.0000
  C   C137      1.0  0.95749  0.77826  0.35196  1.0000
  C   C138      1.0  0.94405  0.78250  0.41895  1.0000
  C   C139      1.0  0.91861  0.76946  0.42169  1.0000
  C   C140      1.0  0.85388  0.70007  0.27790  1.0000
  C   C141      1.0  0.84131  0.67464  0.27845  1.0000
  C   C142      1.0  0.84026  0.66140  0.35715  1.0000
  C   C143      1.0  0.85269  0.67497  0.43494  1.0000
  C   C144      1.0  0.86556  0.70039  0.43404  1.0000
  H   H97       1.0  0.95161  0.75526  0.23871  1.0000
  H   H98       1.0  0.90901  0.73488  0.23929  1.0000
  H   H99       1.0  0.90987  0.77335  0.47101  1.0000
  H   H100      1.0  0.95264  0.79568  0.46642  1.0000
  H   H101      1.0  0.88440  0.77363  0.23768  1.0000
  H   H102      1.0  0.86407  0.79626  0.23628  1.0000
  H   H103      1.0  0.85406  0.70894  0.22002  1.0000
  H   H104      1.0  0.83237  0.66580  0.22084  1.0000
  H   H105      1.0  0.85285  0.66638  0.49319  1.0000
  H   H106      1.0  0.87437  0.70949  0.49143  1.0000
  H   H107      1.0  0.84435  0.73548  0.46631  1.0000
  H   H108      1.0  0.82223  0.75632  0.45983  1.0000
  N   N5        1.0  0.27038  0.13176  0.35531  1.0000
  C   C145      1.0  0.25773  0.14496  0.35574  1.0000
  C   C146      1.0  0.29620  0.14462  0.35572  1.0000
  C   C147      1.0  0.25754  0.10591  0.35150  1.0000
  C   C148      1.0  0.23989  0.09319  0.28455  1.0000
  C   C149      1.0  0.22679  0.06777  0.28310  1.0000
  C   C150      1.0  0.23148  0.05378  0.34555  1.0000
  C   C151      1.0  0.24915  0.06671  0.41276  1.0000
  C   C152      1.0  0.26160  0.09211  0.41647  1.0000
  C   C153      1.0  0.26205  0.16228  0.28824  1.0000
  C   C154      1.0  0.24955  0.17518  0.28752  1.0000
  C   C155      1.0  0.23131  0.17094  0.35190  1.0000
  C   C156      1.0  0.22703  0.15323  0.41880  1.0000
  C   C157      1.0  0.24008  0.14084  0.42157  1.0000
  C   C158      1.0  0.30952  0.14553  0.27801  1.0000
  C   C159      1.0  0.33496  0.15839  0.27859  1.0000
  C   C160      1.0  0.34819  0.17059  0.35728  1.0000
  C   C161      1.0  0.33461  0.16945  0.43506  1.0000
  C   C162      1.0  0.30919  0.15690  0.43412  1.0000
  H   H109      1.0  0.25438  0.18812  0.23887  1.0000
  H   H110      1.0  0.27476  0.16590  0.23948  1.0000
  H   H111      1.0  0.23617  0.12819  0.47083  1.0000
  H   H112      1.0  0.21383  0.14860  0.46618  1.0000
  H   H113      1.0  0.23598  0.10248  0.23767  1.0000
  H   H114      1.0  0.21337  0.05953  0.23625  1.0000
  H   H115      1.0  0.30066  0.13684  0.22011  1.0000
  H   H116      1.0  0.34380  0.15831  0.22097  1.0000
  H   H117      1.0  0.34320  0.17821  0.49329  1.0000
  H   H118      1.0  0.30009  0.15662  0.49151  1.0000
  H   H119      1.0  0.27411  0.10061  0.46640  1.0000
  H   H120      1.0  0.25329  0.05764  0.45990  1.0000
  N   N6        1.0  0.87784  0.13041  0.35534  1.0000
  C   C163      1.0  0.86464  0.10455  0.35576  1.0000
  C   C164      1.0  0.86497  0.14336  0.35574  1.0000
  C   C165      1.0  0.90369  0.14342  0.35154  1.0000
  C   C166      1.0  0.91640  0.13855  0.28440  1.0000
  C   C167      1.0  0.94182  0.15088  0.28294  1.0000
  C   C168      1.0  0.95581  0.16950  0.34558  1.0000
  C   C169      1.0  0.94288  0.17418  0.41297  1.0000
  C   C170      1.0  0.91747  0.16123  0.41669  1.0000
  C   C171      1.0  0.84733  0.09155  0.28824  1.0000
  C   C172      1.0  0.83443  0.06615  0.28754  1.0000
  C   C173      1.0  0.83866  0.05216  0.35198  1.0000
  C   C174      1.0  0.85636  0.06560  0.41891  1.0000
  C   C175      1.0  0.86875  0.09104  0.42164  1.0000
  C   C176      1.0  0.86405  0.15577  0.27801  1.0000
  C   C177      1.0  0.85119  0.16833  0.27858  1.0000
  C   C178      1.0  0.83898  0.16936  0.35726  1.0000
  C   C179      1.0  0.84011  0.15692  0.43503  1.0000
  C   C180      1.0  0.85268  0.14406  0.43413  1.0000
  H   H121      1.0  0.82150  0.05804  0.23887  1.0000
  H   H122      1.0  0.84371  0.10063  0.23945  1.0000
  H   H123      1.0  0.88140  0.09978  0.47094  1.0000
  H   H124      1.0  0.86098  0.05702  0.46632  1.0000
  H   H125      1.0  0.90711  0.12538  0.23740  1.0000
  H   H126      1.0  0.95006  0.14574  0.23594  1.0000
  H   H127      1.0  0.87275  0.15560  0.22013  1.0000
  H   H128      1.0  0.85127  0.17726  0.22095  1.0000
  H   H129      1.0  0.83136  0.15675  0.49327  1.0000
  H   H130      1.0  0.85296  0.13525  0.49152  1.0000
  H   H131      1.0  0.90897  0.16520  0.46674  1.0000
  H   H132      1.0  0.95194  0.18735  0.46027  1.0000
  N   N7        1.0  0.26919  0.52181  0.35156  1.0000
  C   C181      1.0  0.29469  0.53589  0.36615  1.0000
  C   C182      1.0  0.25624  0.49597  0.35396  1.0000
  C   C183      1.0  0.25777  0.53584  0.33544  1.0000
  C   C184      1.0  0.26593  0.55271  0.26353  1.0000
  C   C185      1.0  0.26134  0.57201  0.26304  1.0000
  C   C186      1.0  0.24702  0.57445  0.33081  1.0000
  C   C187      1.0  0.23737  0.55639  0.39877  1.0000
  C   C188      1.0  0.24295  0.53775  0.40192  1.0000
  C   C189      1.0  0.31105  0.53726  0.29919  1.0000
  C   C190      1.0  0.33519  0.55611  0.29920  1.0000
  C   C191      1.0  0.34402  0.57520  0.36342  1.0000
  C   C192      1.0  0.32765  0.57268  0.43340  1.0000
  C   C193      1.0  0.30383  0.55325  0.43616  1.0000
  C   C194      1.0  0.25707  0.48215  0.28080  1.0000
  C   C195      1.0  0.24465  0.45672  0.28398  1.0000
  C   C196      1.0  0.23048  0.44384  0.35998  1.0000
  C   C197      1.0  0.22903  0.45780  0.43163  1.0000
  C   C198      1.0  0.24195  0.48321  0.42946  1.0000
  H   H133      1.0  0.34592  0.55616  0.24801  1.0000
  H   H134      1.0  0.30511  0.52558  0.24578  1.0000
  H   H135      1.0  0.29231  0.55354  0.48347  1.0000
  H   H136      1.0  0.33218  0.58595  0.48037  1.0000
  H   H137      1.0  0.27768  0.55267  0.21676  1.0000
  H   H138      1.0  0.26983  0.58514  0.21514  1.0000
  H   H139      1.0  0.26676  0.49056  0.22403  1.0000
  H   H140      1.0  0.24620  0.44759  0.22990  1.0000
  H   H141      1.0  0.21826  0.44953  0.48641  1.0000
  H   H142      1.0  0.24087  0.49240  0.48411  1.0000
  H   H143      1.0  0.23766  0.52678  0.45737  1.0000
  H   H144      1.0  0.22728  0.55746  0.45033  1.0000
  N   N8        1.0  0.48784  0.73929  0.35158  1.0000
  C   C199      1.0  0.47385  0.75081  0.36582  1.0000
  C   C200      1.0  0.51368  0.75212  0.35396  1.0000
  C   C201      1.0  0.47374  0.71385  0.33545  1.0000
  C   C202      1.0  0.45688  0.70518  0.26349  1.0000
  C   C203      1.0  0.43750  0.68132  0.26313  1.0000
  C   C204      1.0  0.43504  0.66452  0.33075  1.0000
  C   C205      1.0  0.45311  0.67287  0.39865  1.0000
  C   C206      1.0  0.47175  0.69709  0.40197  1.0000
  C   C207      1.0  0.47246  0.76574  0.29861  1.0000
  C   C208      1.0  0.45362  0.77104  0.29840  1.0000
  C   C209      1.0  0.43457  0.76090  0.36281  1.0000
  C   C210      1.0  0.43710  0.74715  0.43315  1.0000
  C   C211      1.0  0.45646  0.74263  0.43573  1.0000
  C   C212      1.0  0.52753  0.76679  0.28086  1.0000
  C   C213      1.0  0.55296  0.77976  0.28409  1.0000
  C   C214      1.0  0.56581  0.77842  0.36006  1.0000
  C   C215      1.0  0.55183  0.76299  0.43163  1.0000
  C   C216      1.0  0.52642  0.75053  0.42942  1.0000
  H   H145      1.0  0.45355  0.78166  0.24700  1.0000
  H   H146      1.0  0.48412  0.77141  0.24514  1.0000
  H   H147      1.0  0.45622  0.73094  0.48347  1.0000
  H   H148      1.0  0.42383  0.73844  0.48016  1.0000
  H   H149      1.0  0.45690  0.71698  0.21684  1.0000
  H   H150      1.0  0.42437  0.67674  0.21530  1.0000
  H   H151      1.0  0.51914  0.76810  0.22411  1.0000
  H   H152      1.0  0.56210  0.79046  0.23008  1.0000
  H   H153      1.0  0.56009  0.76046  0.48639  1.0000
  H   H154      1.0  0.51722  0.74026  0.48403  1.0000
  H   H155      1.0  0.48277  0.70273  0.45729  1.0000
  H   H156      1.0  0.45201  0.66169  0.45019  1.0000
  N   N9        1.0  0.27041  0.74035  0.35123  1.0000
  C   C217      1.0  0.25891  0.71485  0.36595  1.0000
  C   C218      1.0  0.25758  0.75335  0.35361  1.0000
  C   C219      1.0  0.29583  0.75169  0.33456  1.0000
  C   C220      1.0  0.30445  0.74335  0.26292  1.0000
  C   C221      1.0  0.32833  0.74789  0.26242  1.0000
  C   C222      1.0  0.34519  0.76243  0.32952  1.0000
  C   C223      1.0  0.33689  0.77230  0.39700  1.0000
  C   C224      1.0  0.31266  0.76668  0.40048  1.0000
  C   C225      1.0  0.24379  0.69844  0.29939  1.0000
  C   C226      1.0  0.23842  0.67427  0.29956  1.0000
  C   C227      1.0  0.24873  0.66545  0.36358  1.0000
  C   C228      1.0  0.26273  0.68186  0.43323  1.0000
  C   C229      1.0  0.26725  0.70573  0.43564  1.0000
  C   C230      1.0  0.24292  0.75254  0.28048  1.0000
  C   C231      1.0  0.22994  0.76499  0.28371  1.0000
  C   C232      1.0  0.23127  0.77917  0.35972  1.0000
  C   C233      1.0  0.24669  0.78061  0.43131  1.0000
  C   C234      1.0  0.25915  0.76766  0.42910  1.0000
  H   H157      1.0  0.22766  0.66352  0.24856  1.0000
  H   H158      1.0  0.23798  0.70436  0.24610  1.0000
  H   H159      1.0  0.27907  0.71725  0.48293  1.0000
  H   H160      1.0  0.27151  0.67735  0.48009  1.0000
  H   H161      1.0  0.29260  0.73141  0.21676  1.0000
  H   H162      1.0  0.33287  0.73921  0.21503  1.0000
  H   H163      1.0  0.24162  0.74283  0.22372  1.0000
  H   H164      1.0  0.21924  0.76343  0.22970  1.0000
  H   H165      1.0  0.24921  0.79138  0.48609  1.0000
  H   H166      1.0  0.26941  0.76872  0.48373  1.0000
  H   H167      1.0  0.30708  0.77221  0.45554  1.0000
  H   H168      1.0  0.34814  0.78256  0.44810  1.0000
  N   N10       1.0  0.74908  0.47910  0.35152  1.0000
  C   C235      1.0  0.72358  0.46507  0.36595  1.0000
  C   C236      1.0  0.76206  0.50494  0.35388  1.0000
  C   C237      1.0  0.76047  0.46505  0.33529  1.0000
  C   C238      1.0  0.75225  0.44814  0.26351  1.0000
  C   C239      1.0  0.75685  0.42885  0.26289  1.0000
  C   C240      1.0  0.77122  0.42643  0.33048  1.0000
  C   C241      1.0  0.78091  0.44451  0.39838  1.0000
  C   C242      1.0  0.77532  0.46314  0.40165  1.0000
  C   C243      1.0  0.70721  0.46369  0.29901  1.0000
  C   C244      1.0  0.68307  0.44484  0.29899  1.0000
  C   C245      1.0  0.67422  0.42575  0.36324  1.0000
  C   C246      1.0  0.69058  0.42826  0.43324  1.0000
  C   C247      1.0  0.71443  0.44765  0.43579  1.0000
  C   C248      1.0  0.76122  0.51877  0.28075  1.0000
  C   C249      1.0  0.77366  0.54420  0.28392  1.0000
  C   C250      1.0  0.78785  0.55707  0.35990  1.0000
  C   C251      1.0  0.78931  0.54311  0.43151  1.0000
  C   C252      1.0  0.77637  0.51769  0.42934  1.0000
  H   H169      1.0  0.67233  0.44480  0.24783  1.0000
  H   H170      1.0  0.71315  0.47538  0.24563  1.0000
  H   H171      1.0  0.72591  0.44742  0.48337  1.0000
  H   H172      1.0  0.68605  0.41502  0.48031  1.0000
  H   H173      1.0  0.74050  0.44818  0.21672  1.0000
  H   H174      1.0  0.74831  0.41570  0.21510  1.0000
  H   H175      1.0  0.75152  0.51036  0.22400  1.0000
  H   H176      1.0  0.77210  0.55334  0.22989  1.0000
  H   H177      1.0  0.80008  0.55138  0.48626  1.0000
  H   H178      1.0  0.77745  0.50851  0.48397  1.0000
  H   H179      1.0  0.78067  0.47413  0.45702  1.0000
  H   H180      1.0  0.79103  0.44344  0.44985  1.0000
  N   N11       1.0  0.53049  0.26164  0.35151  1.0000
  C   C253      1.0  0.54449  0.25013  0.36581  1.0000
  C   C254      1.0  0.50465  0.24881  0.35388  1.0000
  C   C255      1.0  0.54458  0.28708  0.33536  1.0000
  C   C256      1.0  0.56146  0.29574  0.26347  1.0000
  C   C257      1.0  0.58079  0.31962  0.26295  1.0000
  C   C258      1.0  0.58322  0.33642  0.33051  1.0000
  C   C259      1.0  0.56515  0.32805  0.39844  1.0000
  C   C260      1.0  0.54651  0.30384  0.40176  1.0000
  C   C261      1.0  0.54584  0.23516  0.29873  1.0000
  C   C262      1.0  0.56468  0.22984  0.29863  1.0000
  C   C263      1.0  0.58374  0.24002  0.36298  1.0000
  C   C264      1.0  0.58123  0.25383  0.43315  1.0000
  C   C265      1.0  0.56187  0.25833  0.43578  1.0000
  C   C266      1.0  0.49080  0.23415  0.28075  1.0000
  C   C267      1.0  0.46538  0.22118  0.28396  1.0000
  C   C268      1.0  0.45252  0.22249  0.35998  1.0000
  C   C269      1.0  0.46650  0.23791  0.43159  1.0000
  C   C270      1.0  0.49191  0.25037  0.42937  1.0000
  H   H181      1.0  0.56472  0.21918  0.24735  1.0000
  H   H182      1.0  0.53417  0.22946  0.24529  1.0000
  H   H183      1.0  0.56210  0.27003  0.48345  1.0000
  H   H184      1.0  0.59448  0.26251  0.48028  1.0000
  H   H185      1.0  0.56139  0.28395  0.21664  1.0000
  H   H186      1.0  0.59390  0.32423  0.21502  1.0000
  H   H187      1.0  0.49920  0.23285  0.22398  1.0000
  H   H188      1.0  0.45623  0.21048  0.22994  1.0000
  H   H189      1.0  0.45824  0.24042  0.48637  1.0000
  H   H190      1.0  0.50111  0.26063  0.48401  1.0000
  H   H191      1.0  0.53552  0.29820  0.45715  1.0000
  H   H192      1.0  0.56624  0.33924  0.44995  1.0000
  N   N12       1.0  0.74789  0.26057  0.35125  1.0000
  C   C271      1.0  0.75939  0.28606  0.36604  1.0000
  C   C272      1.0  0.76073  0.24757  0.35367  1.0000
  C   C273      1.0  0.72246  0.24924  0.33482  1.0000
  C   C274      1.0  0.71383  0.25756  0.26318  1.0000
  C   C275      1.0  0.68994  0.25298  0.26262  1.0000
  C   C276      1.0  0.67311  0.23848  0.32990  1.0000
  C   C277      1.0  0.68144  0.22864  0.39745  1.0000
  C   C278      1.0  0.70567  0.23426  0.40086  1.0000
  C   C279      1.0  0.77446  0.30243  0.29927  1.0000
  C   C280      1.0  0.77981  0.32659  0.29933  1.0000
  C   C281      1.0  0.76954  0.33544  0.36346  1.0000
  C   C282      1.0  0.75563  0.31907  0.43334  1.0000
  C   C283      1.0  0.75113  0.29521  0.43593  1.0000
  C   C284      1.0  0.77537  0.24836  0.28052  1.0000
  C   C285      1.0  0.78835  0.23591  0.28377  1.0000
  C   C286      1.0  0.78705  0.22176  0.35983  1.0000
  C   C287      1.0  0.77165  0.22034  0.43146  1.0000
  C   C288      1.0  0.75918  0.23328  0.42922  1.0000
  H   H193      1.0  0.79051  0.33732  0.24816  1.0000
  H   H194      1.0  0.78018  0.29647  0.24586  1.0000
  H   H195      1.0  0.73933  0.28369  0.48322  1.0000
  H   H196      1.0  0.74688  0.32360  0.48029  1.0000
  H   H197      1.0  0.72565  0.26937  0.21662  1.0000
  H   H198      1.0  0.68535  0.26155  0.21495  1.0000
  H   H199      1.0  0.77666  0.25805  0.22372  1.0000
  H   H200      1.0  0.79904  0.23745  0.22973  1.0000
  H   H201      1.0  0.76914  0.20958  0.48627  1.0000
  H   H202      1.0  0.74893  0.23224  0.48388  1.0000
  H   H203      1.0  0.71128  0.22882  0.45606  1.0000
  H   H204      1.0  0.67023  0.21845  0.44874  1.0000
  C   C289      1.0  0.19129  0.36553  0.35861  1.0000
  C   C290      1.0  0.20669  0.37850  0.43165  1.0000
  C   C291      1.0  0.22003  0.40409  0.43481  1.0000
  C   C292      1.0  0.21774  0.41779  0.36287  1.0000
  H   H205      1.0  0.20871  0.36894  0.48315  1.0000
  C   C293      1.0  0.23707  0.41575  0.51171  1.0000
  H   H206      1.0  0.23949  0.40292  0.55255  1.0000
  H   H207      1.0  0.23042  0.42457  0.55679  1.0000
  H   H208      1.0  0.25475  0.42905  0.48599  1.0000
  C   C294      1.0  0.64413  0.81753  0.35876  1.0000
  C   C295      1.0  0.63116  0.81994  0.43186  1.0000
  C   C296      1.0  0.60557  0.80768  0.43501  1.0000
  C   C297      1.0  0.59187  0.79171  0.36301  1.0000
  H   H209      1.0  0.64071  0.83147  0.48345  1.0000
  C   C298      1.0  0.59390  0.81300  0.51206  1.0000
  H   H210      1.0  0.60673  0.82824  0.55297  1.0000
  H   H211      1.0  0.58510  0.79751  0.55704  1.0000
  H   H212      1.0  0.58058  0.81738  0.48649  1.0000
  C   C299      1.0  0.19214  0.81835  0.35850  1.0000
  C   C300      1.0  0.18976  0.80299  0.43163  1.0000
  C   C301      1.0  0.20202  0.78966  0.43475  1.0000
  C   C302      1.0  0.21797  0.79192  0.36270  1.0000
  H   H213      1.0  0.17823  0.80101  0.48324  1.0000
  C   C303      1.0  0.19670  0.77268  0.51181  1.0000
  H   H214      1.0  0.18146  0.77025  0.55270  1.0000
  H   H215      1.0  0.21220  0.77939  0.55681  1.0000
  H   H216      1.0  0.19235  0.75499  0.48628  1.0000
  C   C304      1.0  0.82703  0.63539  0.35855  1.0000
  C   C305      1.0  0.81165  0.62242  0.43164  1.0000
  C   C306      1.0  0.79831  0.59682  0.43478  1.0000
  C   C307      1.0  0.80060  0.58313  0.36281  1.0000
  H   H217      1.0  0.80965  0.63197  0.48318  1.0000
  C   C308      1.0  0.78131  0.58516  0.51177  1.0000
  H   H218      1.0  0.77889  0.59798  0.55265  1.0000
  H   H219      1.0  0.78799  0.57635  0.55679  1.0000
  H   H220      1.0  0.76362  0.57185  0.48616  1.0000
  C   C309      1.0  0.37420  0.18338  0.35868  1.0000
  C   C310      1.0  0.38717  0.18097  0.43177  1.0000
  C   C311      1.0  0.41277  0.19323  0.43492  1.0000
  C   C312      1.0  0.42646  0.20920  0.36292  1.0000
  H   H221      1.0  0.37762  0.16943  0.48335  1.0000
  C   C313      1.0  0.42442  0.18789  0.51194  1.0000
  H   H222      1.0  0.41160  0.17265  0.55282  1.0000
  H   H223      1.0  0.43323  0.20337  0.55696  1.0000
  H   H224      1.0  0.43775  0.18352  0.48635  1.0000
  C   C314      1.0  0.82618  0.18257  0.35863  1.0000
  C   C315      1.0  0.82858  0.19795  0.43171  1.0000
  C   C316      1.0  0.81631  0.21128  0.43484  1.0000
  C   C317      1.0  0.80035  0.20900  0.36281  1.0000
  H   H225      1.0  0.84012  0.19995  0.48329  1.0000
  C   C318      1.0  0.82166  0.22829  0.51181  1.0000
  H   H226      1.0  0.83691  0.23073  0.55266  1.0000
  H   H227      1.0  0.80618  0.22161  0.55686  1.0000
  H   H228      1.0  0.82602  0.24598  0.48617  1.0000
  C   C319      1.0  0.19416  0.19972  0.42414  1.0000
  C   C320      1.0  0.20719  0.18738  0.42726  1.0000
  H   H229      1.0  0.18665  0.20124  0.48324  1.0000
  H   H230      1.0  0.20901  0.18129  0.48911  1.0000
  C   C321      1.0  0.80987  0.98623  0.42430  1.0000
  C   C322      1.0  0.82221  0.01161  0.42740  1.0000
  H   H231      1.0  0.80833  0.97720  0.48344  1.0000
  H   H232      1.0  0.82827  0.01952  0.48926  1.0000
  C   C323      1.0  0.02341  0.81533  0.42431  1.0000
  C   C324      1.0  0.99804  0.80230  0.42741  1.0000
  H   H233      1.0  0.03245  0.82280  0.48348  1.0000
  H   H234      1.0  0.99013  0.80043  0.48929  1.0000
  C   C325      1.0  0.82411  0.80115  0.42429  1.0000
  C   C326      1.0  0.81108  0.81349  0.42740  1.0000
  H   H235      1.0  0.83158  0.79958  0.48345  1.0000
  H   H236      1.0  0.80921  0.81953  0.48930  1.0000
  C   C327      1.0  0.20848  0.01469  0.42429  1.0000
  C   C328      1.0  0.19615  0.98932  0.42740  1.0000
  H   H237      1.0  0.21004  0.02372  0.48344  1.0000
  H   H238      1.0  0.19010  0.98141  0.48928  1.0000
  C   C329      1.0  0.99490  0.18549  0.42421  1.0000
  C   C330      1.0  0.02027  0.19851  0.42729  1.0000
  H   H239      1.0  0.98587  0.17794  0.48329  1.0000
  H   H240      1.0  0.02819  0.20030  0.48911  1.0000
  C   C331      1.0  0.24928  0.60782  0.42075  1.0000
  C   C332      1.0  0.24955  0.62977  0.43023  1.0000
  H   H241      1.0  0.25300  0.60097  0.47723  1.0000
  H   H242      1.0  0.25235  0.63697  0.49389  1.0000
  C   C333      1.0  0.40166  0.63338  0.42063  1.0000
  C   C334      1.0  0.37972  0.61169  0.43009  1.0000
  H   H243      1.0  0.40855  0.64389  0.47721  1.0000
  H   H244      1.0  0.37256  0.60725  0.49380  1.0000
  C   C335      1.0  0.37646  0.76050  0.41971  1.0000
  C   C336      1.0  0.39818  0.76030  0.42933  1.0000
  H   H245      1.0  0.36600  0.75701  0.47638  1.0000
  H   H246      1.0  0.40269  0.75775  0.49315  1.0000
  C   C337      1.0  0.76902  0.39309  0.42050  1.0000
  C   C338      1.0  0.76878  0.37116  0.43005  1.0000
  H   H247      1.0  0.76538  0.39998  0.47705  1.0000
  H   H248      1.0  0.76605  0.36400  0.49376  1.0000
  C   C339      1.0  0.61658  0.36758  0.42046  1.0000
  C   C340      1.0  0.63851  0.38928  0.42993  1.0000
  H   H249      1.0  0.60969  0.35706  0.47703  1.0000
  H   H250      1.0  0.64566  0.39372  0.49364  1.0000
  C   C341      1.0  0.64187  0.24046  0.42000  1.0000
  C   C342      1.0  0.62016  0.24067  0.42957  1.0000
  H   H251      1.0  0.65235  0.24401  0.47662  1.0000
  H   H252      1.0  0.61568  0.24328  0.49336  1.0000
