data_image0
_chemical_formula_structural       C2HNCHNCHC4H2CNCHCNC3H3OC2HNCHNCHC4H2CNCHCNC3H3OC2HCHC2NCHCHC4HC4H2C3H2OC2NC3HOC3NC2H3C2HCHC2NCHCHC4HC4H2C3H2OC2NC3HOC3NC2H3C2HCHNCHC3H2C4H4C3H2OCOC3HCHNCHC3H2C4H4C3H2OCOC3HNCHNCHC4H2CNCHCNC3H3OC2HNCHNCHC4H2CNCHCNC3H3OC2HC2HC2HC2HC2HC2HNCHNCHNCHNCHNCHNCHC4H2C4H2C4H2C4H2C4H2C4H2C2NC3H3OC2NC3H3OC2NC3H3OC2NC3H3OC2NC3H3OC2NC3H3OC2HC2HC2HC2HC2HC2HNCHNCHNCHNCHNCHNCHC4H2C4H2C4H2C4H2C4H2C4H2C2NC3H3OC2NC3H3OC2NC3H3OC2NC3H3OC2NC3H3OC2NC3H3O
_chemical_formula_sum              "C288 H168 N48 O24"
_cell_length_a       46.4695
_cell_length_b       46.4695
_cell_length_c       14.7743
_cell_angle_alpha    90
_cell_angle_beta     90
_cell_angle_gamma    120

_space_group_name_H-M_alt    "P 1"
_space_group_IT_number       1

loop_
  _space_group_symop_operation_xyz
  'x, y, z'

loop_
  _atom_site_type_symbol
  _atom_site_label
  _atom_site_symmetry_multiplicity
  _atom_site_fract_x
  _atom_site_fract_y
  _atom_site_fract_z
  _atom_site_occupancy
  C   C1        1.0  0.04878  0.30228  0.32718  1.0000
  C   C2        1.0  0.08315  0.31993  0.34838  1.0000
  H   H1        1.0  0.03766  0.31636  0.32494  1.0000
  N   N1        1.0  0.14441  0.24227  0.28669  1.0000
  C   C3        1.0  0.11387  0.23987  0.28183  1.0000
  H   H2        1.0  0.10250  0.23571  0.22016  1.0000
  N   N2        1.0  0.11303  0.37456  0.28699  1.0000
  C   C4        1.0  0.14119  0.40508  0.28180  1.0000
  H   H3        1.0  0.14830  0.41637  0.22002  1.0000
  C   C5        1.0  0.02953  0.26663  0.32031  1.0000
  C   C6        1.0  0.09930  0.30133  0.35824  1.0000
  C   C7        1.0  0.08329  0.26679  0.34383  1.0000
  C   C8        1.0  0.04896  0.25033  0.32215  1.0000
  H   H4        1.0  0.12447  0.31389  0.36974  1.0000
  H   H5        1.0  0.03804  0.22530  0.31421  1.0000
  C   C9        1.0  0.10305  0.25157  0.35528  1.0000
  N   N3        1.0  0.12295  0.26096  0.42968  1.0000
  C   C10       1.0  0.15145  0.25990  0.43936  1.0000
  H   H6        1.0  0.15325  0.22613  0.58743  1.0000
  C   C11       1.0  0.10265  0.35487  0.36237  1.0000
  N   N4        1.0  0.15334  0.39613  0.42937  1.0000
  C   C12       1.0  0.12378  0.36769  0.43949  1.0000
  C   C13       1.0  0.11816  0.35066  0.52073  1.0000
  C   C14       1.0  0.08933  0.34305  0.57545  1.0000
  H   H7        1.0  0.08829  0.36563  0.58870  1.0000
  H   H8        1.0  0.09004  0.33218  0.64042  1.0000
  H   H9        1.0  0.06667  0.32526  0.54032  1.0000
  O   O1        1.0  0.14094  0.34836  0.55493  1.0000
  C   C15       1.0  0.04878  0.80228  0.32718  1.0000
  C   C16       1.0  0.08314  0.81993  0.34838  1.0000
  H   H10       1.0  0.03766  0.81635  0.32494  1.0000
  N   N5        1.0  0.14441  0.74227  0.28669  1.0000
  C   C17       1.0  0.11387  0.73987  0.28183  1.0000
  H   H11       1.0  0.10250  0.73571  0.22016  1.0000
  N   N6        1.0  0.11303  0.87456  0.28699  1.0000
  C   C18       1.0  0.14118  0.90508  0.28180  1.0000
  H   H12       1.0  0.14830  0.91637  0.22002  1.0000
  C   C19       1.0  0.02953  0.76663  0.32031  1.0000
  C   C20       1.0  0.09930  0.80133  0.35824  1.0000
  C   C21       1.0  0.08330  0.76679  0.34383  1.0000
  C   C22       1.0  0.04896  0.75033  0.32215  1.0000
  H   H13       1.0  0.12447  0.81389  0.36974  1.0000
  H   H14       1.0  0.03804  0.72530  0.31421  1.0000
  C   C23       1.0  0.10305  0.75157  0.35528  1.0000
  N   N7        1.0  0.12295  0.76096  0.42968  1.0000
  C   C24       1.0  0.15145  0.75990  0.43936  1.0000
  H   H15       1.0  0.15325  0.72613  0.58743  1.0000
  C   C25       1.0  0.10265  0.85488  0.36237  1.0000
  N   N8        1.0  0.15334  0.89613  0.42937  1.0000
  C   C26       1.0  0.12378  0.86769  0.43949  1.0000
  C   C27       1.0  0.11816  0.85066  0.52073  1.0000
  C   C28       1.0  0.08932  0.84304  0.57545  1.0000
  H   H16       1.0  0.08828  0.86563  0.58870  1.0000
  H   H17       1.0  0.09004  0.83218  0.64042  1.0000
  H   H18       1.0  0.06667  0.82526  0.54032  1.0000
  O   O2        1.0  0.14094  0.84836  0.55493  1.0000
  C   C29       1.0  0.21671  0.25027  0.32675  1.0000
  C   C30       1.0  0.19906  0.26703  0.34754  1.0000
  H   H19       1.0  0.20263  0.22508  0.32470  1.0000
  C   C31       1.0  0.25390  0.04498  0.32790  1.0000
  H   H20       1.0  0.22872  0.03383  0.32525  1.0000
  C   C32       1.0  0.26881  0.47038  0.32720  1.0000
  C   C33       1.0  0.25211  0.43594  0.34756  1.0000
  N   N9        1.0  0.24615  0.10928  0.28797  1.0000
  C   C34       1.0  0.24369  0.13738  0.28235  1.0000
  H   H21       1.0  0.24013  0.14471  0.22017  1.0000
  C   C35       1.0  0.25416  0.21281  0.32198  1.0000
  H   H22       1.0  0.22910  0.19871  0.31457  1.0000
  C   C36       1.0  0.25237  0.26665  0.32001  1.0000
  C   C37       1.0  0.21767  0.30179  0.35717  1.0000
  C   C38       1.0  0.25221  0.32029  0.34287  1.0000
  C   C39       1.0  0.26869  0.30238  0.32183  1.0000
  H   H23       1.0  0.20512  0.31442  0.36876  1.0000
  C   C40       1.0  0.25236  0.48958  0.32033  1.0000
  C   C41       1.0  0.21734  0.41971  0.35717  1.0000
  C   C42       1.0  0.19879  0.43572  0.34320  1.0000
  C   C43       1.0  0.21663  0.47010  0.32207  1.0000
  H   H24       1.0  0.20476  0.39454  0.36879  1.0000
  H   H25       1.0  0.20250  0.48101  0.31434  1.0000
  C   C44       1.0  0.16413  0.25158  0.36201  1.0000
  C   C45       1.0  0.16865  0.27127  0.52040  1.0000
  C   C46       1.0  0.17595  0.24971  0.57468  1.0000
  H   H26       1.0  0.18679  0.26104  0.63990  1.0000
  H   H27       1.0  0.19368  0.24479  0.53942  1.0000
  O   O3        1.0  0.17021  0.29576  0.55640  1.0000
  C   C47       1.0  0.26761  0.41654  0.36209  1.0000
  C   C48       1.0  0.26748  0.35524  0.35473  1.0000
  N   N10       1.0  0.25827  0.36585  0.42925  1.0000
  C   C49       1.0  0.25943  0.39545  0.43920  1.0000
  C   C50       1.0  0.24816  0.40128  0.52038  1.0000
  C   C51       1.0  0.27001  0.42987  0.57515  1.0000
  H   H28       1.0  0.25868  0.42945  0.64034  1.0000
  O   O4        1.0  0.22357  0.37841  0.55617  1.0000
  C   C52       1.0  0.16384  0.41603  0.35496  1.0000
  C   C53       1.0  0.25505  0.09873  0.36386  1.0000
  C   C54       1.0  0.25534  0.15999  0.35566  1.0000
  N   N11       1.0  0.26443  0.14945  0.43055  1.0000
  C   C55       1.0  0.26312  0.11981  0.44091  1.0000
  C   C56       1.0  0.25311  0.08515  0.57662  1.0000
  H   H29       1.0  0.22940  0.08396  0.58956  1.0000
  H   H30       1.0  0.26458  0.08581  0.64175  1.0000
  H   H31       1.0  0.24843  0.06259  0.54128  1.0000
  C   C57       1.0  0.21671  0.75027  0.32675  1.0000
  C   C58       1.0  0.19906  0.76702  0.34754  1.0000
  H   H32       1.0  0.20263  0.72508  0.32470  1.0000
  C   C59       1.0  0.25390  0.54498  0.32790  1.0000
  H   H33       1.0  0.22872  0.53383  0.32525  1.0000
  C   C60       1.0  0.26881  0.97038  0.32720  1.0000
  C   C61       1.0  0.25211  0.93594  0.34756  1.0000
  N   N12       1.0  0.24615  0.60928  0.28797  1.0000
  C   C62       1.0  0.24369  0.63738  0.28235  1.0000
  H   H34       1.0  0.24013  0.64471  0.22017  1.0000
  C   C63       1.0  0.25416  0.71281  0.32198  1.0000
  H   H35       1.0  0.22910  0.69871  0.31457  1.0000
  C   C64       1.0  0.25237  0.76665  0.32001  1.0000
  C   C65       1.0  0.21767  0.80179  0.35717  1.0000
  C   C66       1.0  0.25221  0.82029  0.34287  1.0000
  C   C67       1.0  0.26869  0.80238  0.32183  1.0000
  H   H36       1.0  0.20512  0.81442  0.36876  1.0000
  C   C68       1.0  0.25235  0.98958  0.32033  1.0000
  C   C69       1.0  0.21734  0.91971  0.35717  1.0000
  C   C70       1.0  0.19879  0.93572  0.34320  1.0000
  C   C71       1.0  0.21663  0.97010  0.32207  1.0000
  H   H37       1.0  0.20476  0.89455  0.36879  1.0000
  H   H38       1.0  0.20250  0.98101  0.31434  1.0000
  C   C72       1.0  0.16413  0.75158  0.36201  1.0000
  C   C73       1.0  0.16865  0.77127  0.52040  1.0000
  C   C74       1.0  0.17595  0.74971  0.57468  1.0000
  H   H39       1.0  0.18679  0.76104  0.63990  1.0000
  H   H40       1.0  0.19368  0.74479  0.53942  1.0000
  O   O5        1.0  0.17021  0.79576  0.55640  1.0000
  C   C75       1.0  0.26761  0.91653  0.36209  1.0000
  C   C76       1.0  0.26748  0.85524  0.35473  1.0000
  N   N13       1.0  0.25827  0.86585  0.42925  1.0000
  C   C77       1.0  0.25943  0.89545  0.43920  1.0000
  C   C78       1.0  0.24816  0.90128  0.52038  1.0000
  C   C79       1.0  0.27001  0.92987  0.57515  1.0000
  H   H41       1.0  0.25868  0.92945  0.64034  1.0000
  O   O6        1.0  0.22357  0.87841  0.55617  1.0000
  C   C80       1.0  0.16384  0.91603  0.35496  1.0000
  C   C81       1.0  0.25505  0.59873  0.36386  1.0000
  C   C82       1.0  0.25534  0.65999  0.35566  1.0000
  N   N14       1.0  0.26443  0.64945  0.43055  1.0000
  C   C83       1.0  0.26312  0.61981  0.44091  1.0000
  C   C84       1.0  0.25311  0.58515  0.57662  1.0000
  H   H42       1.0  0.22940  0.58396  0.58956  1.0000
  H   H43       1.0  0.26457  0.58580  0.64175  1.0000
  H   H44       1.0  0.24842  0.56259  0.54128  1.0000
  C   C85       1.0  0.32379  0.24816  0.34760  1.0000
  C   C86       1.0  0.30614  0.26491  0.32664  1.0000
  H   H45       1.0  0.32023  0.29010  0.32437  1.0000
  C   C87       1.0  0.27055  0.07931  0.34944  1.0000
  H   H46       1.0  0.29401  0.48157  0.32515  1.0000
  N   N15       1.0  0.27658  0.40587  0.28655  1.0000
  C   C88       1.0  0.27909  0.37780  0.28131  1.0000
  H   H47       1.0  0.28273  0.37044  0.21925  1.0000
  C   C89       1.0  0.27048  0.24854  0.32004  1.0000
  C   C90       1.0  0.27063  0.19492  0.34338  1.0000
  C   C91       1.0  0.30516  0.21342  0.35776  1.0000
  H   H48       1.0  0.31769  0.20079  0.36952  1.0000
  H   H49       1.0  0.29373  0.31647  0.31415  1.0000
  C   C92       1.0  0.27037  0.02579  0.32067  1.0000
  C   C93       1.0  0.30609  0.04529  0.32241  1.0000
  C   C94       1.0  0.32389  0.07955  0.34498  1.0000
  C   C95       1.0  0.30529  0.09546  0.35988  1.0000
  H   H50       1.0  0.32024  0.03443  0.31411  1.0000
  H   H51       1.0  0.31784  0.12059  0.37198  1.0000
  H   H52       1.0  0.29335  0.43026  0.58799  1.0000
  H   H53       1.0  0.27538  0.45272  0.54024  1.0000
  C   C96       1.0  0.35873  0.26361  0.36191  1.0000
  C   C97       1.0  0.35457  0.24412  0.52026  1.0000
  C   C98       1.0  0.34764  0.26585  0.57498  1.0000
  H   H54       1.0  0.33680  0.25451  0.64020  1.0000
  H   H55       1.0  0.33004  0.27105  0.54007  1.0000
  O   O7        1.0  0.35288  0.21953  0.55597  1.0000
  C   C99       1.0  0.27434  0.11411  0.52233  1.0000
  O   O8        1.0  0.29936  0.13681  0.55702  1.0000
  C   C100      1.0  0.35888  0.09937  0.35617  1.0000
  C   C101      1.0  0.32379  0.74816  0.34760  1.0000
  C   C102      1.0  0.30614  0.76491  0.32664  1.0000
  H   H56       1.0  0.32023  0.79010  0.32437  1.0000
  C   C103      1.0  0.27055  0.57931  0.34944  1.0000
  H   H57       1.0  0.29401  0.98157  0.32515  1.0000
  N   N16       1.0  0.27658  0.90587  0.28655  1.0000
  C   C104      1.0  0.27909  0.87780  0.28131  1.0000
  H   H58       1.0  0.28273  0.87044  0.21925  1.0000
  C   C105      1.0  0.27048  0.74855  0.32004  1.0000
  C   C106      1.0  0.27063  0.69492  0.34338  1.0000
  C   C107      1.0  0.30516  0.71342  0.35776  1.0000
  H   H59       1.0  0.31769  0.70079  0.36952  1.0000
  H   H60       1.0  0.29373  0.81647  0.31415  1.0000
  C   C108      1.0  0.27037  0.52580  0.32067  1.0000
  C   C109      1.0  0.30609  0.54529  0.32241  1.0000
  C   C110      1.0  0.32389  0.57955  0.34498  1.0000
  C   C111      1.0  0.30528  0.59546  0.35988  1.0000
  H   H61       1.0  0.32024  0.53443  0.31411  1.0000
  H   H62       1.0  0.31784  0.62059  0.37198  1.0000
  H   H63       1.0  0.29335  0.93026  0.58799  1.0000
  H   H64       1.0  0.27538  0.95272  0.54024  1.0000
  C   C112      1.0  0.35873  0.76361  0.36191  1.0000
  C   C113      1.0  0.35457  0.74412  0.52026  1.0000
  C   C114      1.0  0.34764  0.76585  0.57498  1.0000
  H   H65       1.0  0.33680  0.75451  0.64020  1.0000
  H   H66       1.0  0.33004  0.77106  0.54007  1.0000
  O   O9        1.0  0.35288  0.71953  0.55597  1.0000
  C   C115      1.0  0.27434  0.61411  0.52233  1.0000
  O   O10       1.0  0.29936  0.63681  0.55702  1.0000
  C   C116      1.0  0.35887  0.59937  0.35617  1.0000
  C   C117      1.0  0.43962  0.19519  0.34744  1.0000
  C   C118      1.0  0.47406  0.21286  0.32709  1.0000
  H   H67       1.0  0.48521  0.19880  0.32561  1.0000
  N   N17       1.0  0.37822  0.27270  0.28615  1.0000
  C   C119      1.0  0.40879  0.27517  0.28074  1.0000
  H   H68       1.0  0.41978  0.27899  0.21862  1.0000
  N   N18       1.0  0.40963  0.14034  0.28736  1.0000
  C   C120      1.0  0.38143  0.10984  0.28286  1.0000
  H   H69       1.0  0.37418  0.09833  0.22138  1.0000
  C   C121      1.0  0.49331  0.24850  0.32012  1.0000
  C   C122      1.0  0.47388  0.26481  0.32163  1.0000
  C   C123      1.0  0.43946  0.24832  0.34228  1.0000
  C   C124      1.0  0.42341  0.21377  0.35641  1.0000
  H   H70       1.0  0.48483  0.28985  0.31396  1.0000
  H   H71       1.0  0.39822  0.20121  0.36761  1.0000
  C   C125      1.0  0.41979  0.26361  0.35408  1.0000
  N   N19       1.0  0.40008  0.25432  0.42886  1.0000
  C   C126      1.0  0.37161  0.25541  0.43901  1.0000
  H   H72       1.0  0.37050  0.28928  0.58772  1.0000
  C   C127      1.0  0.42017  0.16029  0.36226  1.0000
  N   N20       1.0  0.36948  0.11940  0.43029  1.0000
  C   C128      1.0  0.39914  0.14779  0.43967  1.0000
  C   C129      1.0  0.40498  0.16509  0.52053  1.0000
  C   C130      1.0  0.43388  0.17274  0.57500  1.0000
  H   H73       1.0  0.43484  0.15014  0.58866  1.0000
  H   H74       1.0  0.43333  0.18381  0.63977  1.0000
  H   H75       1.0  0.45650  0.19037  0.53946  1.0000
  O   O11       1.0  0.38232  0.16756  0.55482  1.0000
  C   C131      1.0  0.43962  0.69519  0.34744  1.0000
  C   C132      1.0  0.47406  0.71286  0.32709  1.0000
  H   H76       1.0  0.48521  0.69880  0.32561  1.0000
  N   N21       1.0  0.37822  0.77270  0.28615  1.0000
  C   C133      1.0  0.40879  0.77517  0.28074  1.0000
  H   H77       1.0  0.41978  0.77899  0.21862  1.0000
  N   N22       1.0  0.40963  0.64035  0.28736  1.0000
  C   C134      1.0  0.38143  0.60984  0.28286  1.0000
  H   H78       1.0  0.37418  0.59833  0.22138  1.0000
  C   C135      1.0  0.49331  0.74850  0.32012  1.0000
  C   C136      1.0  0.47388  0.76481  0.32163  1.0000
  C   C137      1.0  0.43946  0.74832  0.34228  1.0000
  C   C138      1.0  0.42341  0.71377  0.35641  1.0000
  H   H79       1.0  0.48483  0.78985  0.31396  1.0000
  H   H80       1.0  0.39822  0.70121  0.36761  1.0000
  C   C139      1.0  0.41979  0.76361  0.35408  1.0000
  N   N23       1.0  0.40008  0.75432  0.42886  1.0000
  C   C140      1.0  0.37161  0.75541  0.43901  1.0000
  H   H81       1.0  0.37050  0.78928  0.58772  1.0000
  C   C141      1.0  0.42017  0.66029  0.36226  1.0000
  N   N24       1.0  0.36948  0.61940  0.43029  1.0000
  C   C142      1.0  0.39914  0.64779  0.43967  1.0000
  C   C143      1.0  0.40498  0.66508  0.52053  1.0000
  C   C144      1.0  0.43388  0.67273  0.57500  1.0000
  H   H82       1.0  0.43484  0.65014  0.58866  1.0000
  H   H83       1.0  0.43333  0.68380  0.63977  1.0000
  H   H84       1.0  0.45650  0.69037  0.53946  1.0000
  O   O12       1.0  0.38231  0.66756  0.55482  1.0000
  C   C145      1.0  0.93962  0.19519  0.34744  1.0000
  C   C146      1.0  0.97406  0.21286  0.32709  1.0000
  H   H85       1.0  0.98521  0.19880  0.32561  1.0000
  C   C147      1.0  0.54878  0.30228  0.32718  1.0000
  C   C148      1.0  0.58315  0.31993  0.34838  1.0000
  H   H86       1.0  0.53766  0.31636  0.32494  1.0000
  C   C149      1.0  0.82379  0.24816  0.34760  1.0000
  C   C150      1.0  0.80614  0.26491  0.32664  1.0000
  H   H87       1.0  0.82023  0.29010  0.32437  1.0000
  C   C151      1.0  0.71671  0.25027  0.32675  1.0000
  C   C152      1.0  0.69906  0.26703  0.34754  1.0000
  H   H88       1.0  0.70263  0.22508  0.32470  1.0000
  C   C153      1.0  0.77056  0.07931  0.34944  1.0000
  C   C154      1.0  0.75391  0.04498  0.32790  1.0000
  H   H89       1.0  0.72872  0.03383  0.32525  1.0000
  C   C155      1.0  0.76881  0.47038  0.32720  1.0000
  C   C156      1.0  0.75211  0.43594  0.34756  1.0000
  H   H90       1.0  0.79401  0.48157  0.32515  1.0000
  N   N25       1.0  0.64441  0.24227  0.28669  1.0000
  C   C157      1.0  0.61387  0.23987  0.28183  1.0000
  H   H91       1.0  0.60250  0.23571  0.22016  1.0000
  N   N26       1.0  0.77658  0.40587  0.28655  1.0000
  C   C158      1.0  0.77909  0.37780  0.28131  1.0000
  H   H92       1.0  0.78273  0.37044  0.21925  1.0000
  N   N27       1.0  0.61303  0.37456  0.28699  1.0000
  C   C159      1.0  0.64118  0.40508  0.28180  1.0000
  H   H93       1.0  0.64830  0.41637  0.22002  1.0000
  N   N28       1.0  0.87823  0.27270  0.28615  1.0000
  C   C160      1.0  0.90879  0.27517  0.28074  1.0000
  H   H94       1.0  0.91978  0.27899  0.21862  1.0000
  N   N29       1.0  0.74615  0.10928  0.28797  1.0000
  C   C161      1.0  0.74369  0.13738  0.28235  1.0000
  H   H95       1.0  0.74013  0.14471  0.22017  1.0000
  N   N30       1.0  0.90963  0.14034  0.28736  1.0000
  C   C162      1.0  0.88143  0.10984  0.28286  1.0000
  H   H96       1.0  0.87418  0.09833  0.22138  1.0000
  C   C163      1.0  0.99331  0.24850  0.32012  1.0000
  C   C164      1.0  0.97388  0.26481  0.32163  1.0000
  C   C165      1.0  0.93947  0.24832  0.34228  1.0000
  C   C166      1.0  0.92341  0.21377  0.35641  1.0000
  H   H97       1.0  0.98483  0.28985  0.31396  1.0000
  H   H98       1.0  0.89822  0.20121  0.36761  1.0000
  C   C167      1.0  0.52953  0.26663  0.32031  1.0000
  C   C168      1.0  0.59930  0.30133  0.35824  1.0000
  C   C169      1.0  0.58330  0.26679  0.34383  1.0000
  C   C170      1.0  0.54896  0.25033  0.32215  1.0000
  H   H99       1.0  0.62447  0.31389  0.36974  1.0000
  H   H100      1.0  0.53804  0.22530  0.31421  1.0000
  C   C171      1.0  0.77049  0.24854  0.32004  1.0000
  C   C172      1.0  0.75416  0.21281  0.32198  1.0000
  C   C173      1.0  0.77063  0.19492  0.34338  1.0000
  C   C174      1.0  0.80516  0.21342  0.35776  1.0000
  H   H101      1.0  0.72910  0.19871  0.31457  1.0000
  H   H102      1.0  0.81769  0.20079  0.36952  1.0000
  C   C175      1.0  0.75237  0.26665  0.32001  1.0000
  C   C176      1.0  0.71767  0.30179  0.35717  1.0000
  C   C177      1.0  0.75221  0.32029  0.34287  1.0000
  C   C178      1.0  0.76869  0.30238  0.32183  1.0000
  H   H103      1.0  0.70512  0.31442  0.36876  1.0000
  H   H104      1.0  0.79373  0.31647  0.31415  1.0000
  C   C179      1.0  0.77037  0.02579  0.32067  1.0000
  C   C180      1.0  0.80609  0.04529  0.32241  1.0000
  C   C181      1.0  0.82389  0.07955  0.34498  1.0000
  C   C182      1.0  0.80529  0.09546  0.35988  1.0000
  H   H105      1.0  0.82024  0.03443  0.31411  1.0000
  H   H106      1.0  0.81784  0.12059  0.37198  1.0000
  C   C183      1.0  0.75236  0.48958  0.32033  1.0000
  C   C184      1.0  0.71734  0.41971  0.35717  1.0000
  C   C185      1.0  0.69879  0.43572  0.34320  1.0000
  C   C186      1.0  0.71663  0.47010  0.32207  1.0000
  H   H107      1.0  0.70476  0.39454  0.36879  1.0000
  H   H108      1.0  0.70250  0.48101  0.31434  1.0000
  C   C187      1.0  0.66413  0.25158  0.36201  1.0000
  C   C188      1.0  0.60305  0.25157  0.35528  1.0000
  N   N31       1.0  0.62295  0.26096  0.42968  1.0000
  C   C189      1.0  0.65145  0.25990  0.43936  1.0000
  C   C190      1.0  0.66865  0.27127  0.52040  1.0000
  C   C191      1.0  0.67595  0.24971  0.57468  1.0000
  H   H109      1.0  0.65325  0.22613  0.58743  1.0000
  H   H110      1.0  0.68678  0.26104  0.63990  1.0000
  H   H111      1.0  0.69368  0.24479  0.53942  1.0000
  O   O13       1.0  0.67021  0.29576  0.55640  1.0000
  C   C192      1.0  0.76761  0.41654  0.36209  1.0000
  C   C193      1.0  0.76748  0.35524  0.35473  1.0000
  N   N32       1.0  0.75827  0.36585  0.42925  1.0000
  C   C194      1.0  0.75943  0.39545  0.43920  1.0000
  C   C195      1.0  0.74817  0.40128  0.52038  1.0000
  C   C196      1.0  0.77001  0.42987  0.57515  1.0000
  H   H112      1.0  0.79335  0.43026  0.58799  1.0000
  H   H113      1.0  0.75868  0.42945  0.64034  1.0000
  H   H114      1.0  0.77538  0.45272  0.54024  1.0000
  O   O14       1.0  0.72357  0.37841  0.55617  1.0000
  C   C197      1.0  0.60265  0.35487  0.36237  1.0000
  C   C198      1.0  0.66384  0.41603  0.35496  1.0000
  N   N33       1.0  0.65334  0.39613  0.42937  1.0000
  C   C199      1.0  0.62378  0.36769  0.43949  1.0000
  C   C200      1.0  0.61816  0.35066  0.52073  1.0000
  C   C201      1.0  0.58933  0.34305  0.57545  1.0000
  H   H115      1.0  0.58829  0.36563  0.58870  1.0000
  H   H116      1.0  0.59004  0.33218  0.64042  1.0000
  H   H117      1.0  0.56667  0.32526  0.54032  1.0000
  O   O15       1.0  0.64094  0.34836  0.55493  1.0000
  C   C202      1.0  0.85873  0.26361  0.36191  1.0000
  C   C203      1.0  0.91979  0.26361  0.35408  1.0000
  N   N34       1.0  0.90008  0.25432  0.42886  1.0000
  C   C204      1.0  0.87161  0.25541  0.43901  1.0000
  C   C205      1.0  0.85457  0.24412  0.52026  1.0000
  C   C206      1.0  0.84764  0.26585  0.57498  1.0000
  H   H118      1.0  0.87050  0.28928  0.58772  1.0000
  H   H119      1.0  0.83680  0.25451  0.64020  1.0000
  H   H120      1.0  0.83005  0.27105  0.54007  1.0000
  O   O16       1.0  0.85288  0.21953  0.55597  1.0000
  C   C207      1.0  0.75505  0.09873  0.36386  1.0000
  C   C208      1.0  0.75534  0.15999  0.35566  1.0000
  N   N35       1.0  0.76443  0.14945  0.43055  1.0000
  C   C209      1.0  0.76312  0.11981  0.44091  1.0000
  C   C210      1.0  0.77434  0.11411  0.52233  1.0000
  C   C211      1.0  0.75311  0.08515  0.57662  1.0000
  H   H121      1.0  0.72940  0.08396  0.58956  1.0000
  H   H122      1.0  0.76458  0.08581  0.64175  1.0000
  H   H123      1.0  0.74842  0.06259  0.54128  1.0000
  O   O17       1.0  0.79936  0.13681  0.55702  1.0000
  C   C212      1.0  0.92017  0.16029  0.36226  1.0000
  C   C213      1.0  0.85888  0.09937  0.35617  1.0000
  N   N36       1.0  0.86948  0.11940  0.43029  1.0000
  C   C214      1.0  0.89914  0.14779  0.43967  1.0000
  C   C215      1.0  0.90498  0.16509  0.52053  1.0000
  C   C216      1.0  0.93388  0.17274  0.57500  1.0000
  H   H124      1.0  0.93484  0.15014  0.58866  1.0000
  H   H125      1.0  0.93333  0.18381  0.63977  1.0000
  H   H126      1.0  0.95650  0.19037  0.53946  1.0000
  O   O18       1.0  0.88231  0.16756  0.55482  1.0000
  C   C217      1.0  0.93962  0.69519  0.34744  1.0000
  C   C218      1.0  0.97406  0.71286  0.32709  1.0000
  H   H127      1.0  0.98521  0.69880  0.32561  1.0000
  C   C219      1.0  0.54878  0.80228  0.32718  1.0000
  C   C220      1.0  0.58315  0.81993  0.34838  1.0000
  H   H128      1.0  0.53766  0.81635  0.32494  1.0000
  C   C221      1.0  0.82379  0.74816  0.34760  1.0000
  C   C222      1.0  0.80614  0.76491  0.32664  1.0000
  H   H129      1.0  0.82023  0.79010  0.32437  1.0000
  C   C223      1.0  0.71671  0.75027  0.32675  1.0000
  C   C224      1.0  0.69906  0.76702  0.34754  1.0000
  H   H130      1.0  0.70263  0.72508  0.32470  1.0000
  C   C225      1.0  0.77056  0.57931  0.34944  1.0000
  C   C226      1.0  0.75390  0.54498  0.32790  1.0000
  H   H131      1.0  0.72872  0.53383  0.32525  1.0000
  C   C227      1.0  0.76881  0.97038  0.32720  1.0000
  C   C228      1.0  0.75211  0.93594  0.34756  1.0000
  H   H132      1.0  0.79401  0.98157  0.32515  1.0000
  N   N37       1.0  0.64441  0.74227  0.28669  1.0000
  C   C229      1.0  0.61387  0.73987  0.28183  1.0000
  H   H133      1.0  0.60250  0.73571  0.22016  1.0000
  N   N38       1.0  0.77658  0.90587  0.28655  1.0000
  C   C230      1.0  0.77909  0.87780  0.28131  1.0000
  H   H134      1.0  0.78273  0.87044  0.21925  1.0000
  N   N39       1.0  0.61303  0.87456  0.28699  1.0000
  C   C231      1.0  0.64118  0.90508  0.28180  1.0000
  H   H135      1.0  0.64830  0.91637  0.22002  1.0000
  N   N40       1.0  0.87822  0.77270  0.28615  1.0000
  C   C232      1.0  0.90879  0.77517  0.28074  1.0000
  H   H136      1.0  0.91978  0.77899  0.21862  1.0000
  N   N41       1.0  0.74615  0.60928  0.28797  1.0000
  C   C233      1.0  0.74369  0.63738  0.28235  1.0000
  H   H137      1.0  0.74012  0.64471  0.22017  1.0000
  N   N42       1.0  0.90963  0.64035  0.28736  1.0000
  C   C234      1.0  0.88143  0.60984  0.28286  1.0000
  H   H138      1.0  0.87418  0.59833  0.22138  1.0000
  C   C235      1.0  0.99331  0.74850  0.32012  1.0000
  C   C236      1.0  0.97388  0.76481  0.32163  1.0000
  C   C237      1.0  0.93946  0.74832  0.34228  1.0000
  C   C238      1.0  0.92341  0.71377  0.35641  1.0000
  H   H139      1.0  0.98483  0.78985  0.31396  1.0000
  H   H140      1.0  0.89822  0.70121  0.36761  1.0000
  C   C239      1.0  0.52953  0.76663  0.32031  1.0000
  C   C240      1.0  0.59930  0.80133  0.35824  1.0000
  C   C241      1.0  0.58330  0.76679  0.34383  1.0000
  C   C242      1.0  0.54896  0.75033  0.32215  1.0000
  H   H141      1.0  0.62447  0.81389  0.36974  1.0000
  H   H142      1.0  0.53804  0.72530  0.31421  1.0000
  C   C243      1.0  0.77048  0.74855  0.32004  1.0000
  C   C244      1.0  0.75416  0.71281  0.32198  1.0000
  C   C245      1.0  0.77063  0.69492  0.34338  1.0000
  C   C246      1.0  0.80516  0.71342  0.35776  1.0000
  H   H143      1.0  0.72910  0.69871  0.31457  1.0000
  H   H144      1.0  0.81769  0.70079  0.36952  1.0000
  C   C247      1.0  0.75237  0.76665  0.32001  1.0000
  C   C248      1.0  0.71767  0.80179  0.35717  1.0000
  C   C249      1.0  0.75221  0.82029  0.34287  1.0000
  C   C250      1.0  0.76869  0.80238  0.32183  1.0000
  H   H145      1.0  0.70512  0.81442  0.36876  1.0000
  H   H146      1.0  0.79373  0.81647  0.31415  1.0000
  C   C251      1.0  0.77036  0.52580  0.32067  1.0000
  C   C252      1.0  0.80609  0.54529  0.32241  1.0000
  C   C253      1.0  0.82389  0.57955  0.34498  1.0000
  C   C254      1.0  0.80529  0.59546  0.35988  1.0000
  H   H147      1.0  0.82024  0.53443  0.31411  1.0000
  H   H148      1.0  0.81784  0.62059  0.37198  1.0000
  C   C255      1.0  0.75235  0.98958  0.32033  1.0000
  C   C256      1.0  0.71734  0.91971  0.35717  1.0000
  C   C257      1.0  0.69879  0.93572  0.34320  1.0000
  C   C258      1.0  0.71663  0.97010  0.32207  1.0000
  H   H149      1.0  0.70476  0.89455  0.36879  1.0000
  H   H150      1.0  0.70250  0.98101  0.31434  1.0000
  C   C259      1.0  0.66413  0.75158  0.36201  1.0000
  C   C260      1.0  0.60305  0.75157  0.35528  1.0000
  N   N43       1.0  0.62295  0.76096  0.42968  1.0000
  C   C261      1.0  0.65145  0.75990  0.43936  1.0000
  C   C262      1.0  0.66865  0.77127  0.52040  1.0000
  C   C263      1.0  0.67595  0.74971  0.57468  1.0000
  H   H151      1.0  0.65325  0.72613  0.58743  1.0000
  H   H152      1.0  0.68679  0.76104  0.63990  1.0000
  H   H153      1.0  0.69368  0.74479  0.53942  1.0000
  O   O19       1.0  0.67021  0.79576  0.55640  1.0000
  C   C264      1.0  0.76761  0.91653  0.36209  1.0000
  C   C265      1.0  0.76748  0.85524  0.35473  1.0000
  N   N44       1.0  0.75827  0.86585  0.42925  1.0000
  C   C266      1.0  0.75943  0.89545  0.43920  1.0000
  C   C267      1.0  0.74817  0.90128  0.52038  1.0000
  C   C268      1.0  0.77001  0.92987  0.57515  1.0000
  H   H154      1.0  0.79335  0.93026  0.58799  1.0000
  H   H155      1.0  0.75868  0.92945  0.64034  1.0000
  H   H156      1.0  0.77538  0.95272  0.54024  1.0000
  O   O20       1.0  0.72357  0.87841  0.55617  1.0000
  C   C269      1.0  0.60265  0.85488  0.36237  1.0000
  C   C270      1.0  0.66384  0.91603  0.35496  1.0000
  N   N45       1.0  0.65334  0.89613  0.42937  1.0000
  C   C271      1.0  0.62378  0.86769  0.43949  1.0000
  C   C272      1.0  0.61816  0.85066  0.52073  1.0000
  C   C273      1.0  0.58932  0.84304  0.57545  1.0000
  H   H157      1.0  0.58828  0.86563  0.58870  1.0000
  H   H158      1.0  0.59004  0.83218  0.64042  1.0000
  H   H159      1.0  0.56667  0.82526  0.54032  1.0000
  O   O21       1.0  0.64094  0.84836  0.55493  1.0000
  C   C274      1.0  0.85873  0.76361  0.36191  1.0000
  C   C275      1.0  0.91979  0.76361  0.35408  1.0000
  N   N46       1.0  0.90008  0.75432  0.42886  1.0000
  C   C276      1.0  0.87161  0.75541  0.43901  1.0000
  C   C277      1.0  0.85457  0.74412  0.52026  1.0000
  C   C278      1.0  0.84764  0.76585  0.57498  1.0000
  H   H160      1.0  0.87050  0.78928  0.58772  1.0000
  H   H161      1.0  0.83680  0.75451  0.64020  1.0000
  H   H162      1.0  0.83004  0.77106  0.54007  1.0000
  O   O22       1.0  0.85288  0.71953  0.55597  1.0000
  C   C279      1.0  0.75505  0.59873  0.36386  1.0000
  C   C280      1.0  0.75534  0.65999  0.35566  1.0000
  N   N47       1.0  0.76443  0.64945  0.43055  1.0000
  C   C281      1.0  0.76312  0.61981  0.44091  1.0000
  C   C282      1.0  0.77434  0.61411  0.52233  1.0000
  C   C283      1.0  0.75311  0.58515  0.57662  1.0000
  H   H163      1.0  0.72940  0.58396  0.58956  1.0000
  H   H164      1.0  0.76457  0.58580  0.64175  1.0000
  H   H165      1.0  0.74843  0.56259  0.54128  1.0000
  O   O23       1.0  0.79936  0.63681  0.55702  1.0000
  C   C284      1.0  0.92017  0.66029  0.36226  1.0000
  C   C285      1.0  0.85887  0.59937  0.35617  1.0000
  N   N48       1.0  0.86948  0.61940  0.43029  1.0000
  C   C286      1.0  0.89914  0.64779  0.43967  1.0000
  C   C287      1.0  0.90498  0.66508  0.52053  1.0000
  C   C288      1.0  0.93388  0.67273  0.57500  1.0000
  H   H166      1.0  0.93484  0.65014  0.58866  1.0000
  H   H167      1.0  0.93333  0.68380  0.63977  1.0000
  H   H168      1.0  0.95650  0.69037  0.53946  1.0000
  O   O24       1.0  0.88231  0.66756  0.55482  1.0000
