data_image0
_chemical_formula_structural       NC2OCH3NC2OCH3NC2OCH3NC2OCH3CNCOCH3CNCOCH3CNCOCH3CNCOCH3CNCOCH3CNCOCH3CNCOCH3CNCOCH3NC2OCH3NC2OCH3NC2OCH3NC2OCH3CNCOCH3CNCOCH3CNCOCH3CNCOCH3NC2OCH3NC2OCH3NC2OCH3NC2OCH3CNCOCH3CNCOCH3NC2OCH3NC2OCH3NC2OCH3NC2OCH3CNCOCH3CNCOCH3CNCOCH3CNCOCH3CNCOCH3CNCOCH3CNCOCH3CNCOCH3NC2OCH3NC2OCH3NC2OCH3NC2OCH3C6H3C6H3C6H3C6H3C6H3C6H3C6H3C6H3C6H3C6H3C6H3C6H3C6H3C6H3C6H3C6H3C6H3C6H3C6H3C6H3C6H3C6H3C6H3C6H3C6H3C6H3C6H3C6H3CNCOCH3CNCOCH3CNCOCH3CNCOCH3NC2OCH3NC2OCH3NC2OCH3NC2OCH3NC2OCH3NC2OCH3NC2OCH3NC2OCH3CNCOCH3CNCOCH3CNCOCH3CNCOCH3NC2OCH3NC2OCH3NC2OCH3NC2OCH3CNCOCH3CNCOCH3CNCOCH3CNCOCH3NC2OCH3NC2OCH3CNCOCH3CNCOCH3CNCOCH3CNCOCH3NC2OCH3NC2OCH3NC2OCH3NC2OCH3NC2OCH3NC2OCH3NC2OCH3NC2OCH3CNCOCH3CNCOCH3CNCOCH3CNCOCH3
_chemical_formula_sum              "N84 C420 O84 H336"
_cell_length_a       51.9316
_cell_length_b       51.9316
_cell_length_c       14.8294
_cell_angle_alpha    90
_cell_angle_beta     90
_cell_angle_gamma    90

_space_group_name_H-M_alt    "P 1"
_space_group_IT_number       1

loop_
  _space_group_symop_operation_xyz
  'x, y, z'

loop_
  _atom_site_type_symbol
  _atom_site_label
  _atom_site_symmetry_multiplicity
  _atom_site_fract_x
  _atom_site_fract_y
  _atom_site_fract_z
  _atom_site_occupancy
  N   N1        1.0  0.15260  0.15035  0.27655  1.0000
  C   C1        1.0  0.13406  0.13207  0.27026  1.0000
  C   C2        1.0  0.12299  0.12284  0.35101  1.0000
  O   O1        1.0  0.12781  0.12208  0.18768  1.0000
  C   C3        1.0  0.11114  0.13850  0.13589  1.0000
  H   H1        1.0  0.10691  0.12886  0.07229  1.0000
  H   H2        1.0  0.12039  0.15690  0.12062  1.0000
  H   H3        1.0  0.09294  0.14199  0.17077  1.0000
  N   N2        1.0  0.85870  0.86116  0.27753  1.0000
  C   C4        1.0  0.87720  0.87948  0.27096  1.0000
  C   C5        1.0  0.88844  0.88864  0.35152  1.0000
  O   O2        1.0  0.88328  0.88952  0.18831  1.0000
  C   C6        1.0  0.89996  0.87320  0.13620  1.0000
  H   H4        1.0  0.90405  0.88288  0.07254  1.0000
  H   H5        1.0  0.89080  0.85476  0.12107  1.0000
  H   H6        1.0  0.91824  0.86982  0.17074  1.0000
  N   N3        1.0  0.86125  0.15283  0.27748  1.0000
  C   C7        1.0  0.87955  0.13431  0.27094  1.0000
  C   C8        1.0  0.88863  0.12301  0.35151  1.0000
  O   O3        1.0  0.88965  0.12827  0.18834  1.0000
  C   C9        1.0  0.87336  0.11160  0.13605  1.0000
  H   H7        1.0  0.88307  0.10754  0.07243  1.0000
  H   H8        1.0  0.85492  0.12076  0.12083  1.0000
  H   H9        1.0  0.86997  0.09331  0.17048  1.0000
  N   N4        1.0  0.15033  0.85888  0.27666  1.0000
  C   C10       1.0  0.13202  0.87740  0.27034  1.0000
  C   C11       1.0  0.12279  0.88847  0.35107  1.0000
  O   O4        1.0  0.12202  0.88361  0.18776  1.0000
  C   C12       1.0  0.13842  0.90030  0.13595  1.0000
  H   H10       1.0  0.12877  0.90452  0.07234  1.0000
  H   H11       1.0  0.15683  0.89108  0.12069  1.0000
  H   H12       1.0  0.14187  0.91852  0.17080  1.0000
  C   C13       1.0  0.09800  0.97868  0.32312  1.0000
  N   N5        1.0  0.08940  0.01914  0.25568  1.0000
  C   C14       1.0  0.08946  0.99320  0.24826  1.0000
  O   O5        1.0  0.07771  0.98239  0.17492  1.0000
  C   C15       1.0  0.09548  0.97635  0.10378  1.0000
  H   H13       1.0  0.08460  0.96804  0.04801  1.0000
  H   H14       1.0  0.10976  0.96220  0.12562  1.0000
  H   H15       1.0  0.10527  0.99360  0.07914  1.0000
  C   C16       1.0  0.91338  0.03280  0.32291  1.0000
  N   N6        1.0  0.92201  0.99233  0.25547  1.0000
  C   C17       1.0  0.92193  0.01827  0.24807  1.0000
  O   O6        1.0  0.93367  0.02909  0.17474  1.0000
  C   C18       1.0  0.91590  0.03513  0.10359  1.0000
  H   H16       1.0  0.92677  0.04344  0.04783  1.0000
  H   H17       1.0  0.90161  0.04927  0.12543  1.0000
  H   H18       1.0  0.90612  0.01787  0.07895  1.0000
  C   C19       1.0  0.03278  0.09804  0.32289  1.0000
  N   N7        1.0  0.99231  0.08937  0.25551  1.0000
  C   C20       1.0  0.01825  0.08946  0.24809  1.0000
  O   O7        1.0  0.02907  0.07770  0.17478  1.0000
  C   C21       1.0  0.03512  0.09546  0.10361  1.0000
  H   H19       1.0  0.04343  0.08457  0.04787  1.0000
  H   H20       1.0  0.04927  0.10974  0.12544  1.0000
  H   H21       1.0  0.01787  0.10525  0.07895  1.0000
  C   C22       1.0  0.97863  0.91343  0.32291  1.0000
  N   N8        1.0  0.01911  0.92207  0.25552  1.0000
  C   C23       1.0  0.99317  0.92198  0.24809  1.0000
  O   O8        1.0  0.98235  0.93373  0.17475  1.0000
  C   C24       1.0  0.97632  0.91595  0.10360  1.0000
  H   H22       1.0  0.96801  0.92683  0.04783  1.0000
  H   H23       1.0  0.96218  0.90167  0.12543  1.0000
  H   H24       1.0  0.99358  0.90617  0.07898  1.0000
  C   C25       1.0  0.16587  0.30272  0.35630  1.0000
  N   N9        1.0  0.16366  0.25960  0.30096  1.0000
  C   C26       1.0  0.15455  0.28421  0.29863  1.0000
  O   O9        1.0  0.13539  0.29024  0.23900  1.0000
  C   C27       1.0  0.14474  0.29562  0.14968  1.0000
  H   H25       1.0  0.12826  0.30038  0.10727  1.0000
  H   H26       1.0  0.15438  0.27888  0.12045  1.0000
  H   H27       1.0  0.15787  0.31206  0.14940  1.0000
  C   C28       1.0  0.84568  0.70865  0.35977  1.0000
  N   N10       1.0  0.84796  0.75172  0.30404  1.0000
  C   C29       1.0  0.85708  0.72711  0.30208  1.0000
  O   O10       1.0  0.87628  0.72102  0.24272  1.0000
  C   C30       1.0  0.86702  0.71558  0.15335  1.0000
  H   H28       1.0  0.88353  0.71078  0.11118  1.0000
  H   H29       1.0  0.85741  0.73230  0.12384  1.0000
  H   H30       1.0  0.85388  0.69913  0.15308  1.0000
  C   C31       1.0  0.70870  0.16588  0.35965  1.0000
  N   N11       1.0  0.75177  0.16359  0.30390  1.0000
  C   C32       1.0  0.72717  0.15447  0.30200  1.0000
  O   O11       1.0  0.72108  0.13523  0.24275  1.0000
  C   C33       1.0  0.71562  0.14446  0.15335  1.0000
  H   H31       1.0  0.71083  0.12792  0.11126  1.0000
  H   H32       1.0  0.73233  0.15407  0.12376  1.0000
  H   H33       1.0  0.69917  0.15759  0.15304  1.0000
  C   C34       1.0  0.30275  0.84572  0.35652  1.0000
  N   N12       1.0  0.25963  0.84791  0.30115  1.0000
  C   C35       1.0  0.28424  0.85703  0.29879  1.0000
  O   O12       1.0  0.29028  0.87615  0.23905  1.0000
  C   C36       1.0  0.29564  0.86677  0.14978  1.0000
  H   H34       1.0  0.30041  0.88323  0.10729  1.0000
  H   H35       1.0  0.27889  0.85713  0.12061  1.0000
  H   H36       1.0  0.31208  0.85362  0.14955  1.0000
  N   N13       1.0  0.82674  0.29356  0.28503  1.0000
  C   C37       1.0  0.81778  0.26904  0.28353  1.0000
  C   C38       1.0  0.82819  0.25120  0.34559  1.0000
  O   O13       1.0  0.79858  0.26300  0.22406  1.0000
  C   C39       1.0  0.80809  0.25542  0.13697  1.0000
  H   H37       1.0  0.79160  0.25089  0.09432  1.0000
  H   H38       1.0  0.82018  0.23824  0.14147  1.0000
  H   H39       1.0  0.81892  0.27098  0.10491  1.0000
  N   N14       1.0  0.18480  0.71797  0.28446  1.0000
  C   C40       1.0  0.19375  0.74249  0.28287  1.0000
  C   C41       1.0  0.18335  0.76033  0.34490  1.0000
  O   O14       1.0  0.21290  0.74852  0.22321  1.0000
  C   C42       1.0  0.20333  0.75605  0.13615  1.0000
  H   H40       1.0  0.21979  0.76058  0.09336  1.0000
  H   H41       1.0  0.19123  0.77323  0.14066  1.0000
  H   H42       1.0  0.19250  0.74048  0.10425  1.0000
  N   N15       1.0  0.29359  0.18466  0.28433  1.0000
  C   C43       1.0  0.26907  0.19361  0.28262  1.0000
  C   C44       1.0  0.25121  0.18324  0.34468  1.0000
  O   O15       1.0  0.26306  0.21275  0.22290  1.0000
  C   C45       1.0  0.25551  0.20317  0.13589  1.0000
  H   H43       1.0  0.25100  0.21962  0.09304  1.0000
  H   H44       1.0  0.23832  0.19109  0.14045  1.0000
  H   H45       1.0  0.27107  0.19231  0.10401  1.0000
  N   N16       1.0  0.71798  0.82657  0.28526  1.0000
  C   C46       1.0  0.74250  0.81761  0.28388  1.0000
  C   C47       1.0  0.76032  0.82806  0.34591  1.0000
  O   O16       1.0  0.74855  0.79840  0.22447  1.0000
  C   C48       1.0  0.75611  0.80790  0.13733  1.0000
  H   H46       1.0  0.76066  0.79140  0.09473  1.0000
  H   H47       1.0  0.77328  0.82001  0.14177  1.0000
  H   H48       1.0  0.74054  0.81869  0.10525  1.0000
  C   C49       1.0  0.37848  0.10649  0.34113  1.0000
  N   N17       1.0  0.40865  0.07411  0.29504  1.0000
  C   C50       1.0  0.40050  0.09901  0.29097  1.0000
  O   O17       1.0  0.41435  0.11561  0.23841  1.0000
  C   C51       1.0  0.40597  0.11601  0.14602  1.0000
  H   H49       1.0  0.41793  0.12976  0.10951  1.0000
  H   H50       1.0  0.38593  0.12222  0.14032  1.0000
  H   H51       1.0  0.40825  0.09715  0.11427  1.0000
  C   C52       1.0  0.63326  0.90501  0.33981  1.0000
  N   N18       1.0  0.60379  0.93761  0.29039  1.0000
  C   C53       1.0  0.61202  0.91274  0.28619  1.0000
  O   O18       1.0  0.59906  0.89634  0.23013  1.0000
  C   C54       1.0  0.60885  0.89645  0.13944  1.0000
  H   H52       1.0  0.59753  0.88285  0.09986  1.0000
  H   H53       1.0  0.62898  0.89033  0.13713  1.0000
  H   H54       1.0  0.60698  0.91546  0.10848  1.0000
  C   C55       1.0  0.90502  0.37844  0.34123  1.0000
  N   N19       1.0  0.93741  0.40859  0.29510  1.0000
  C   C56       1.0  0.91251  0.40045  0.29105  1.0000
  O   O19       1.0  0.89591  0.41431  0.23849  1.0000
  C   C57       1.0  0.89551  0.40593  0.14610  1.0000
  H   H55       1.0  0.88176  0.41789  0.10959  1.0000
  H   H56       1.0  0.88929  0.38589  0.14039  1.0000
  H   H57       1.0  0.91437  0.40821  0.11436  1.0000
  C   C58       1.0  0.10647  0.63323  0.33972  1.0000
  N   N20       1.0  0.07389  0.60374  0.29034  1.0000
  C   C59       1.0  0.09876  0.61198  0.28614  1.0000
  O   O20       1.0  0.11516  0.59902  0.23011  1.0000
  C   C60       1.0  0.11506  0.60881  0.13940  1.0000
  H   H58       1.0  0.12867  0.59749  0.09985  1.0000
  H   H59       1.0  0.12117  0.62894  0.13709  1.0000
  H   H60       1.0  0.09605  0.60693  0.10843  1.0000
  N   N21       1.0  0.64434  0.08750  0.30790  1.0000
  C   C61       1.0  0.63626  0.06243  0.30414  1.0000
  C   C62       1.0  0.61380  0.05502  0.35202  1.0000
  O   O21       1.0  0.64995  0.04557  0.25210  1.0000
  C   C63       1.0  0.64224  0.04573  0.15896  1.0000
  H   H61       1.0  0.65400  0.03171  0.12296  1.0000
  H   H62       1.0  0.64537  0.06460  0.12818  1.0000
  H   H63       1.0  0.62205  0.04021  0.15121  1.0000
  N   N22       1.0  0.36758  0.92391  0.30233  1.0000
  C   C64       1.0  0.37578  0.94894  0.29883  1.0000
  C   C65       1.0  0.39782  0.95637  0.34902  1.0000
  O   O22       1.0  0.36269  0.96578  0.24485  1.0000
  C   C66       1.0  0.37128  0.96537  0.15266  1.0000
  H   H64       1.0  0.35995  0.97939  0.11494  1.0000
  H   H65       1.0  0.36834  0.94646  0.12201  1.0000
  H   H66       1.0  0.39156  0.97077  0.14712  1.0000
  N   N23       1.0  0.08763  0.36752  0.30237  1.0000
  C   C67       1.0  0.06259  0.37571  0.29888  1.0000
  C   C68       1.0  0.05515  0.39775  0.34906  1.0000
  O   O23       1.0  0.04576  0.36261  0.24491  1.0000
  C   C69       1.0  0.04615  0.37120  0.15272  1.0000
  H   H67       1.0  0.03214  0.35986  0.11502  1.0000
  H   H68       1.0  0.06506  0.36826  0.12206  1.0000
  H   H69       1.0  0.04075  0.39148  0.14719  1.0000
  N   N24       1.0  0.92401  0.64426  0.30782  1.0000
  C   C70       1.0  0.94908  0.63618  0.30407  1.0000
  C   C71       1.0  0.95649  0.61371  0.35198  1.0000
  O   O24       1.0  0.96594  0.64986  0.25202  1.0000
  C   C72       1.0  0.96577  0.64215  0.15889  1.0000
  H   H70       1.0  0.97980  0.65390  0.12289  1.0000
  H   H71       1.0  0.94691  0.64528  0.12811  1.0000
  H   H72       1.0  0.97130  0.62196  0.15115  1.0000
  C   C73       1.0  0.53294  0.00513  0.34269  1.0000
  N   N25       1.0  0.49172  0.99023  0.29268  1.0000
  C   C74       1.0  0.51782  0.98908  0.28622  1.0000
  O   O25       1.0  0.52824  0.97255  0.22438  1.0000
  C   C75       1.0  0.53126  0.98391  0.13658  1.0000
  H   H73       1.0  0.53968  0.96949  0.09204  1.0000
  H   H74       1.0  0.54421  0.00049  0.13854  1.0000
  H   H75       1.0  0.51272  0.98975  0.10830  1.0000
  C   C76       1.0  0.00639  0.53287  0.34273  1.0000
  N   N26       1.0  0.02130  0.49165  0.29271  1.0000
  C   C77       1.0  0.02244  0.51776  0.28625  1.0000
  O   O26       1.0  0.03897  0.52817  0.22441  1.0000
  C   C78       1.0  0.02760  0.53120  0.13663  1.0000
  H   H76       1.0  0.04203  0.53963  0.09208  1.0000
  H   H77       1.0  0.01103  0.54416  0.13861  1.0000
  H   H78       1.0  0.02176  0.51267  0.10833  1.0000
  N   N27       1.0  0.23660  0.41616  0.30179  1.0000
  C   C79       1.0  0.21160  0.40784  0.30085  1.0000
  C   C80       1.0  0.20424  0.38778  0.36016  1.0000
  O   O27       1.0  0.19484  0.41815  0.23964  1.0000
  C   C81       1.0  0.19678  0.40669  0.15161  1.0000
  H   H79       1.0  0.18265  0.41592  0.10790  1.0000
  H   H80       1.0  0.19254  0.38609  0.15358  1.0000
  H   H81       1.0  0.21586  0.40972  0.12232  1.0000
  N   N28       1.0  0.77489  0.59538  0.30349  1.0000
  C   C82       1.0  0.79990  0.60367  0.30303  1.0000
  C   C83       1.0  0.80725  0.62362  0.36278  1.0000
  O   O28       1.0  0.81672  0.59339  0.24193  1.0000
  C   C84       1.0  0.81490  0.60494  0.15403  1.0000
  H   H82       1.0  0.82908  0.59573  0.11040  1.0000
  H   H83       1.0  0.81919  0.62553  0.15633  1.0000
  H   H84       1.0  0.79586  0.60199  0.12441  1.0000
  N   N29       1.0  0.59537  0.23660  0.30367  1.0000
  C   C85       1.0  0.60368  0.21159  0.30316  1.0000
  C   C86       1.0  0.62365  0.20425  0.36287  1.0000
  O   O29       1.0  0.59340  0.19477  0.24204  1.0000
  C   C87       1.0  0.60494  0.19661  0.15412  1.0000
  H   H85       1.0  0.59574  0.18244  0.11049  1.0000
  H   H86       1.0  0.62554  0.19235  0.15640  1.0000
  H   H87       1.0  0.60197  0.21566  0.12455  1.0000
  N   N30       1.0  0.41611  0.77492  0.30161  1.0000
  C   C88       1.0  0.40780  0.79992  0.30073  1.0000
  C   C89       1.0  0.38777  0.80730  0.36012  1.0000
  O   O30       1.0  0.41811  0.81668  0.23950  1.0000
  C   C90       1.0  0.40664  0.81475  0.15150  1.0000
  H   H88       1.0  0.41586  0.82889  0.10778  1.0000
  H   H89       1.0  0.38603  0.81901  0.15355  1.0000
  H   H90       1.0  0.40964  0.79568  0.12218  1.0000
  C   C91       1.0  0.75670  0.40652  0.33149  1.0000
  N   N31       1.0  0.78918  0.37854  0.27409  1.0000
  C   C92       1.0  0.76458  0.38725  0.26992  1.0000
  O   O31       1.0  0.74821  0.37578  0.20991  1.0000
  C   C93       1.0  0.74806  0.38813  0.12318  1.0000
  H   H91       1.0  0.73456  0.37782  0.07996  1.0000
  H   H92       1.0  0.76705  0.38743  0.09150  1.0000
  H   H93       1.0  0.74166  0.40813  0.12811  1.0000
  C   C94       1.0  0.25472  0.60501  0.32952  1.0000
  N   N32       1.0  0.22223  0.63295  0.27187  1.0000
  C   C95       1.0  0.24685  0.62426  0.26787  1.0000
  O   O32       1.0  0.26325  0.63576  0.20800  1.0000
  C   C96       1.0  0.26349  0.62340  0.12129  1.0000
  H   H94       1.0  0.27700  0.63372  0.07818  1.0000
  H   H95       1.0  0.24451  0.62406  0.08944  1.0000
  H   H96       1.0  0.26992  0.60340  0.12632  1.0000
  C   C97       1.0  0.40647  0.25482  0.33138  1.0000
  N   N33       1.0  0.37853  0.22232  0.27394  1.0000
  C   C98       1.0  0.38723  0.24692  0.26978  1.0000
  O   O33       1.0  0.37575  0.26329  0.20971  1.0000
  C   C99       1.0  0.38812  0.26343  0.12301  1.0000
  H   H97       1.0  0.37782  0.27692  0.07975  1.0000
  H   H98       1.0  0.38743  0.24443  0.09136  1.0000
  H   H99       1.0  0.40812  0.26983  0.12798  1.0000
  C   C100      1.0  0.60495  0.75678  0.32957  1.0000
  N   N34       1.0  0.63291  0.78925  0.27195  1.0000
  C   C101      1.0  0.62421  0.76463  0.26795  1.0000
  O   O34       1.0  0.63571  0.74822  0.20812  1.0000
  C   C102      1.0  0.62336  0.74799  0.12139  1.0000
  H   H100      1.0  0.63368  0.73447  0.07831  1.0000
  H   H101      1.0  0.62403  0.76695  0.08951  1.0000
  H   H102      1.0  0.60336  0.74156  0.12639  1.0000
  C   C103      1.0  0.31631  0.53330  0.33685  1.0000
  N   N35       1.0  0.31555  0.49249  0.26165  1.0000
  C   C104      1.0  0.31553  0.51873  0.25620  1.0000
  O   O35       1.0  0.31506  0.53048  0.17358  1.0000
  C   C105      1.0  0.29076  0.52835  0.12773  1.0000
  H   H103      1.0  0.29222  0.53872  0.06401  1.0000
  H   H104      1.0  0.27518  0.53696  0.16698  1.0000
  H   H105      1.0  0.28607  0.50829  0.11276  1.0000
  C   C106      1.0  0.69510  0.47825  0.33807  1.0000
  N   N36       1.0  0.69577  0.51905  0.26270  1.0000
  C   C107      1.0  0.69577  0.49280  0.25736  1.0000
  O   O36       1.0  0.69614  0.48103  0.17478  1.0000
  C   C108      1.0  0.72043  0.48306  0.12877  1.0000
  H   H106      1.0  0.71889  0.47268  0.06507  1.0000
  H   H107      1.0  0.73600  0.47438  0.16792  1.0000
  H   H108      1.0  0.72520  0.50310  0.11375  1.0000
  C   C109      1.0  0.47822  0.31639  0.33808  1.0000
  N   N37       1.0  0.51902  0.31574  0.26277  1.0000
  C   C110      1.0  0.49278  0.31575  0.25738  1.0000
  O   O37       1.0  0.48102  0.31541  0.17477  1.0000
  C   C111      1.0  0.48302  0.29113  0.12873  1.0000
  H   H109      1.0  0.47266  0.29268  0.06500  1.0000
  H   H110      1.0  0.47432  0.27557  0.16783  1.0000
  H   H111      1.0  0.50306  0.28634  0.11375  1.0000
  C   C112      1.0  0.53324  0.69515  0.33678  1.0000
  N   N38       1.0  0.49243  0.69600  0.26150  1.0000
  C   C113      1.0  0.51868  0.69602  0.25613  1.0000
  O   O38       1.0  0.53044  0.69652  0.17354  1.0000
  C   C114      1.0  0.52829  0.72083  0.12775  1.0000
  H   H112      1.0  0.53868  0.71940  0.06407  1.0000
  H   H113      1.0  0.53687  0.73642  0.16708  1.0000
  H   H114      1.0  0.50822  0.72549  0.11272  1.0000
  N   N39       1.0  0.38963  0.36984  0.29519  1.0000
  C   C115      1.0  0.37216  0.38953  0.29079  1.0000
  C   C116      1.0  0.34962  0.38856  0.34500  1.0000
  O   O39       1.0  0.37662  0.40904  0.23091  1.0000
  C   C117      1.0  0.36721  0.40357  0.14171  1.0000
  H   H115      1.0  0.37149  0.42010  0.09891  1.0000
  H   H116      1.0  0.34637  0.40062  0.14150  1.0000
  H   H117      1.0  0.37672  0.38670  0.11283  1.0000
  N   N40       1.0  0.62185  0.64171  0.29500  1.0000
  C   C118      1.0  0.63931  0.62200  0.29093  1.0000
  C   C119      1.0  0.66183  0.62302  0.34520  1.0000
  O   O40       1.0  0.63484  0.60243  0.23131  1.0000
  C   C120      1.0  0.64427  0.60779  0.14206  1.0000
  H   H118      1.0  0.63999  0.59122  0.09949  1.0000
  H   H119      1.0  0.66511  0.61073  0.14185  1.0000
  H   H120      1.0  0.63478  0.62464  0.11292  1.0000
  N   N41       1.0  0.64167  0.38965  0.29571  1.0000
  C   C121      1.0  0.62197  0.37218  0.29144  1.0000
  C   C122      1.0  0.62296  0.34966  0.34572  1.0000
  O   O41       1.0  0.60244  0.37663  0.23162  1.0000
  C   C123      1.0  0.60789  0.36721  0.14242  1.0000
  H   H121      1.0  0.59135  0.37147  0.09968  1.0000
  H   H122      1.0  0.61084  0.34637  0.14225  1.0000
  H   H123      1.0  0.62475  0.37671  0.11346  1.0000
  N   N42       1.0  0.36978  0.62189  0.29455  1.0000
  C   C124      1.0  0.38948  0.63936  0.29034  1.0000
  C   C125      1.0  0.38848  0.66190  0.34451  1.0000
  O   O42       1.0  0.40904  0.63487  0.23065  1.0000
  C   C126      1.0  0.40365  0.64428  0.14140  1.0000
  H   H124      1.0  0.42021  0.63999  0.09877  1.0000
  H   H125      1.0  0.40071  0.66512  0.14113  1.0000
  H   H126      1.0  0.38680  0.63478  0.11235  1.0000
  C   C127      1.0  0.09257  0.05836  0.33512  1.0000
  C   C128      1.0  0.06646  0.06564  0.32868  1.0000
  C   C129      1.0  0.05898  0.09173  0.33246  1.0000
  C   C130      1.0  0.07792  0.11077  0.34502  1.0000
  C   C131      1.0  0.10411  0.10370  0.35070  1.0000
  C   C132      1.0  0.11145  0.07755  0.34643  1.0000
  H   H127      1.0  0.07275  0.12982  0.34577  1.0000
  H   H128      1.0  0.13053  0.07255  0.34824  1.0000
  H   H129      1.0  0.05263  0.05168  0.32157  1.0000
  C   C133      1.0  0.91884  0.95311  0.33498  1.0000
  C   C134      1.0  0.94495  0.94583  0.32849  1.0000
  C   C135      1.0  0.95243  0.91975  0.33247  1.0000
  C   C136      1.0  0.93350  0.90071  0.34543  1.0000
  C   C137      1.0  0.90731  0.90779  0.35094  1.0000
  C   C138      1.0  0.89997  0.93393  0.34644  1.0000
  H   H130      1.0  0.93867  0.88166  0.34616  1.0000
  H   H131      1.0  0.88088  0.93893  0.34826  1.0000
  H   H132      1.0  0.95879  0.95979  0.32124  1.0000
  C   C139      1.0  0.95309  0.09257  0.33503  1.0000
  C   C140      1.0  0.94580  0.06647  0.32852  1.0000
  C   C141      1.0  0.91971  0.05900  0.33250  1.0000
  C   C142      1.0  0.90068  0.07794  0.34546  1.0000
  C   C143      1.0  0.90777  0.10413  0.35097  1.0000
  C   C144      1.0  0.93392  0.11145  0.34646  1.0000
  H   H133      1.0  0.88163  0.07278  0.34618  1.0000
  H   H134      1.0  0.93893  0.13054  0.34827  1.0000
  H   H135      1.0  0.95975  0.05262  0.32130  1.0000
  C   C145      1.0  0.05831  0.91889  0.33507  1.0000
  C   C146      1.0  0.06559  0.94500  0.32869  1.0000
  C   C147      1.0  0.09168  0.95248  0.33258  1.0000
  C   C148      1.0  0.11072  0.93354  0.34525  1.0000
  C   C149      1.0  0.10364  0.90734  0.35074  1.0000
  C   C150      1.0  0.07750  0.90001  0.34630  1.0000
  H   H136      1.0  0.12977  0.93871  0.34600  1.0000
  H   H137      1.0  0.07249  0.88093  0.34809  1.0000
  H   H138      1.0  0.05164  0.95884  0.32160  1.0000
  C   C151      1.0  0.17936  0.17950  0.35519  1.0000
  C   C152      1.0  0.20551  0.17239  0.35355  1.0000
  C   C153      1.0  0.22502  0.19128  0.34967  1.0000
  C   C154      1.0  0.21755  0.21759  0.34983  1.0000
  C   C155      1.0  0.19128  0.22513  0.35211  1.0000
  C   C156      1.0  0.17233  0.20567  0.35332  1.0000
  H   H139      1.0  0.23149  0.23150  0.34815  1.0000
  H   H140      1.0  0.15320  0.21054  0.35520  1.0000
  H   H141      1.0  0.21029  0.15323  0.35277  1.0000
  C   C157      1.0  0.83216  0.83188  0.35654  1.0000
  C   C158      1.0  0.80601  0.83896  0.35457  1.0000
  C   C159      1.0  0.78652  0.82006  0.35109  1.0000
  C   C160      1.0  0.79400  0.79375  0.35181  1.0000
  C   C161      1.0  0.82029  0.78624  0.35439  1.0000
  C   C162      1.0  0.83922  0.80571  0.35530  1.0000
  H   H142      1.0  0.78008  0.77982  0.35033  1.0000
  H   H143      1.0  0.85835  0.80086  0.35737  1.0000
  H   H144      1.0  0.80121  0.85812  0.35342  1.0000
  C   C163      1.0  0.83194  0.17936  0.35639  1.0000
  C   C164      1.0  0.83905  0.20550  0.35432  1.0000
  C   C165      1.0  0.82016  0.22501  0.35076  1.0000
  C   C166      1.0  0.79384  0.21755  0.35149  1.0000
  C   C167      1.0  0.78630  0.19127  0.35414  1.0000
  C   C168      1.0  0.80576  0.17233  0.35516  1.0000
  H   H145      1.0  0.77993  0.23149  0.34996  1.0000
  H   H146      1.0  0.80089  0.15320  0.35729  1.0000
  H   H147      1.0  0.85821  0.21028  0.35319  1.0000
  C   C169      1.0  0.17953  0.83217  0.35534  1.0000
  C   C170      1.0  0.17244  0.80602  0.35367  1.0000
  C   C171      1.0  0.19135  0.78653  0.34989  1.0000
  C   C172      1.0  0.21765  0.79402  0.35011  1.0000
  C   C173      1.0  0.22517  0.82031  0.35238  1.0000
  C   C174      1.0  0.20569  0.83924  0.35356  1.0000
  H   H148      1.0  0.23158  0.78010  0.34848  1.0000
  H   H149      1.0  0.21054  0.85837  0.35538  1.0000
  H   H150      1.0  0.15329  0.80122  0.35290  1.0000
  C   C175      1.0  0.45117  0.00594  0.34872  1.0000
  C   C176      1.0  0.43737  0.98249  0.34851  1.0000
  C   C177      1.0  0.41006  0.98144  0.34755  1.0000
  C   C178      1.0  0.39666  0.00545  0.34562  1.0000
  C   C179      1.0  0.40964  0.02969  0.34438  1.0000
  C   C180      1.0  0.43694  0.02909  0.34586  1.0000
  H   H151      1.0  0.37700  0.00529  0.34484  1.0000
  H   H152      1.0  0.44693  0.04609  0.34451  1.0000
  H   H153      1.0  0.44767  0.96567  0.34937  1.0000
  C   C181      1.0  0.56049  0.00537  0.34359  1.0000
  C   C182      1.0  0.57428  0.02879  0.34898  1.0000
  C   C183      1.0  0.60160  0.02992  0.34940  1.0000
  C   C184      1.0  0.61503  0.00593  0.34658  1.0000
  C   C185      1.0  0.60209  0.98171  0.34278  1.0000
  C   C186      1.0  0.57480  0.98225  0.34126  1.0000
  H   H154      1.0  0.63469  0.00607  0.34755  1.0000
  H   H155      1.0  0.56491  0.96520  0.34222  1.0000
  H   H156      1.0  0.56396  0.04560  0.34909  1.0000
  C   C187      1.0  0.00559  0.45110  0.34873  1.0000
  C   C188      1.0  0.02903  0.43730  0.34853  1.0000
  C   C189      1.0  0.03009  0.40998  0.34757  1.0000
  C   C190      1.0  0.00607  0.39659  0.34566  1.0000
  C   C191      1.0  0.98183  0.40957  0.34441  1.0000
  C   C192      1.0  0.98243  0.43687  0.34588  1.0000
  H   H157      1.0  0.00623  0.37692  0.34489  1.0000
  H   H158      1.0  0.96544  0.44686  0.34455  1.0000
  H   H159      1.0  0.04586  0.44760  0.34938  1.0000
  C   C193      1.0  0.00615  0.56042  0.34364  1.0000
  C   C194      1.0  0.98272  0.57420  0.34909  1.0000
  C   C195      1.0  0.98159  0.60152  0.34940  1.0000
  C   C196      1.0  0.00557  0.61496  0.34655  1.0000
  C   C197      1.0  0.02980  0.60203  0.34276  1.0000
  C   C198      1.0  0.02926  0.57474  0.34129  1.0000
  H   H160      1.0  0.00542  0.63462  0.34747  1.0000
  H   H161      1.0  0.04632  0.56485  0.34219  1.0000
  H   H162      1.0  0.96591  0.56387  0.34909  1.0000
  C   C199      1.0  0.28155  0.41565  0.34915  1.0000
  C   C200      1.0  0.30289  0.39853  0.34941  1.0000
  C   C201      1.0  0.32885  0.40709  0.34381  1.0000
  C   C202      1.0  0.33299  0.43414  0.33971  1.0000
  C   C203      1.0  0.31223  0.45191  0.33948  1.0000
  C   C204      1.0  0.28675  0.44230  0.34247  1.0000
  H   H163      1.0  0.35141  0.44111  0.33946  1.0000
  H   H164      1.0  0.27169  0.45506  0.34354  1.0000
  H   H165      1.0  0.29936  0.37915  0.35079  1.0000
  C   C205      1.0  0.72990  0.59590  0.35027  1.0000
  C   C206      1.0  0.70856  0.61302  0.35019  1.0000
  C   C207      1.0  0.68260  0.60448  0.34430  1.0000
  C   C208      1.0  0.67846  0.57743  0.34029  1.0000
  C   C209      1.0  0.69921  0.55965  0.34037  1.0000
  C   C210      1.0  0.72469  0.56925  0.34364  1.0000
  H   H166      1.0  0.66004  0.57045  0.33984  1.0000
  H   H167      1.0  0.73975  0.55649  0.34495  1.0000
  H   H168      1.0  0.71210  0.63241  0.35161  1.0000
  C   C211      1.0  0.59587  0.28159  0.35050  1.0000
  C   C212      1.0  0.61298  0.30293  0.35052  1.0000
  C   C213      1.0  0.60442  0.32889  0.34469  1.0000
  C   C214      1.0  0.57738  0.33302  0.34055  1.0000
  C   C215      1.0  0.55960  0.31227  0.34053  1.0000
  C   C216      1.0  0.56921  0.28679  0.34381  1.0000
  H   H169      1.0  0.57040  0.35144  0.34012  1.0000
  H   H170      1.0  0.55646  0.27173  0.34504  1.0000
  H   H171      1.0  0.63237  0.29940  0.35200  1.0000
  C   C217      1.0  0.41558  0.72996  0.34892  1.0000
  C   C218      1.0  0.39846  0.70862  0.34908  1.0000
  C   C219      1.0  0.40701  0.68266  0.34347  1.0000
  C   C220      1.0  0.43406  0.67853  0.33947  1.0000
  C   C221      1.0  0.45184  0.69927  0.33929  1.0000
  C   C222      1.0  0.44224  0.72476  0.34234  1.0000
  H   H172      1.0  0.44104  0.66010  0.33916  1.0000
  H   H173      1.0  0.45500  0.73982  0.34339  1.0000
  H   H174      1.0  0.37907  0.71216  0.35044  1.0000
  C   C223      1.0  0.73060  0.41533  0.33778  1.0000
  C   C224      1.0  0.70959  0.39786  0.34110  1.0000
  C   C225      1.0  0.68350  0.40604  0.34480  1.0000
  C   C226      1.0  0.67884  0.43301  0.34186  1.0000
  C   C227      1.0  0.69931  0.45113  0.34006  1.0000
  C   C228      1.0  0.72497  0.44194  0.33977  1.0000
  H   H175      1.0  0.66026  0.43961  0.34333  1.0000
  H   H176      1.0  0.73985  0.45489  0.33726  1.0000
  H   H177      1.0  0.71347  0.37855  0.34044  1.0000
  C   C229      1.0  0.28082  0.59623  0.33602  1.0000
  C   C230      1.0  0.30183  0.61369  0.33946  1.0000
  C   C231      1.0  0.32792  0.60552  0.34341  1.0000
  C   C232      1.0  0.33258  0.57855  0.34059  1.0000
  C   C233      1.0  0.31211  0.56042  0.33871  1.0000
  C   C234      1.0  0.28645  0.56962  0.33815  1.0000
  H   H178      1.0  0.35115  0.57195  0.34232  1.0000
  H   H179      1.0  0.27158  0.55666  0.33561  1.0000
  H   H180      1.0  0.29794  0.63300  0.33869  1.0000
  C   C235      1.0  0.41528  0.28092  0.33763  1.0000
  C   C236      1.0  0.39782  0.30193  0.34084  1.0000
  C   C237      1.0  0.40601  0.32802  0.34448  1.0000
  C   C238      1.0  0.43298  0.33268  0.34155  1.0000
  C   C239      1.0  0.45110  0.31220  0.33994  1.0000
  C   C240      1.0  0.44190  0.28654  0.33971  1.0000
  H   H181      1.0  0.43958  0.35125  0.34307  1.0000
  H   H182      1.0  0.45485  0.27166  0.33731  1.0000
  H   H183      1.0  0.37851  0.29805  0.34012  1.0000
  C   C241      1.0  0.59616  0.73067  0.33610  1.0000
  C   C242      1.0  0.61363  0.70968  0.33967  1.0000
  C   C243      1.0  0.60546  0.68359  0.34369  1.0000
  C   C244      1.0  0.57849  0.67891  0.34080  1.0000
  C   C245      1.0  0.56036  0.69937  0.33874  1.0000
  C   C246      1.0  0.56955  0.72503  0.33809  1.0000
  H   H184      1.0  0.57191  0.66034  0.34253  1.0000
  H   H185      1.0  0.55659  0.73991  0.33550  1.0000
  H   H186      1.0  0.63294  0.71357  0.33896  1.0000
  C   C247      1.0  0.16112  0.32983  0.35299  1.0000
  C   C248      1.0  0.18265  0.34637  0.35570  1.0000
  C   C249      1.0  0.18058  0.37346  0.35554  1.0000
  C   C250      1.0  0.15538  0.38407  0.35111  1.0000
  C   C251      1.0  0.13278  0.36839  0.34933  1.0000
  C   C252      1.0  0.13635  0.34122  0.34867  1.0000
  H   H187      1.0  0.15358  0.40366  0.35008  1.0000
  H   H188      1.0  0.12057  0.32941  0.34969  1.0000
  H   H189      1.0  0.20068  0.33830  0.35532  1.0000
  C   C253      1.0  0.85042  0.68154  0.35671  1.0000
  C   C254      1.0  0.82888  0.66502  0.35900  1.0000
  C   C255      1.0  0.83093  0.63793  0.35860  1.0000
  C   C256      1.0  0.85611  0.62730  0.35431  1.0000
  C   C257      1.0  0.87875  0.64295  0.35311  1.0000
  C   C258      1.0  0.87518  0.67013  0.35272  1.0000
  H   H190      1.0  0.85788  0.60771  0.35281  1.0000
  H   H191      1.0  0.89095  0.68194  0.35399  1.0000
  H   H192      1.0  0.81086  0.67311  0.35843  1.0000
  C   C259      1.0  0.68160  0.16112  0.35668  1.0000
  C   C260      1.0  0.66506  0.18265  0.35900  1.0000
  C   C261      1.0  0.63797  0.18058  0.35865  1.0000
  C   C262      1.0  0.62735  0.15539  0.35437  1.0000
  C   C263      1.0  0.64302  0.13276  0.35315  1.0000
  C   C264      1.0  0.67019  0.13635  0.35271  1.0000
  H   H193      1.0  0.60777  0.15362  0.35290  1.0000
  H   H194      1.0  0.68202  0.12059  0.35396  1.0000
  H   H195      1.0  0.67313  0.20068  0.35842  1.0000
  C   C265      1.0  0.32985  0.85045  0.35312  1.0000
  C   C266      1.0  0.34638  0.82891  0.35573  1.0000
  C   C267      1.0  0.37347  0.83097  0.35553  1.0000
  C   C268      1.0  0.38410  0.85615  0.35109  1.0000
  C   C269      1.0  0.36843  0.87877  0.34934  1.0000
  C   C270      1.0  0.34126  0.87522  0.34880  1.0000
  H   H196      1.0  0.40369  0.85795  0.35001  1.0000
  H   H197      1.0  0.32946  0.89100  0.34978  1.0000
  H   H198      1.0  0.33830  0.81089  0.35539  1.0000
  C   C271      1.0  0.85069  0.32952  0.34110  1.0000
  C   C272      1.0  0.82921  0.34610  0.33741  1.0000
  C   C273      1.0  0.83140  0.37317  0.33640  1.0000
  C   C274      1.0  0.85661  0.38372  0.34072  1.0000
  C   C275      1.0  0.87918  0.36798  0.34292  1.0000
  C   C276      1.0  0.87550  0.34083  0.34484  1.0000
  H   H199      1.0  0.85843  0.40331  0.34130  1.0000
  H   H200      1.0  0.89121  0.32894  0.34439  1.0000
  H   H201      1.0  0.81115  0.33809  0.33785  1.0000
  C   C277      1.0  0.16085  0.68201  0.34043  1.0000
  C   C278      1.0  0.18228  0.66539  0.33615  1.0000
  C   C279      1.0  0.18003  0.63832  0.33432  1.0000
  C   C280      1.0  0.15480  0.62781  0.33830  1.0000
  C   C281      1.0  0.13230  0.64363  0.34147  1.0000
  C   C282      1.0  0.13602  0.67076  0.34423  1.0000
  H   H202      1.0  0.15288  0.60823  0.33786  1.0000
  H   H203      1.0  0.12031  0.68266  0.34426  1.0000
  H   H204      1.0  0.20036  0.67335  0.33668  1.0000
  C   C283      1.0  0.32954  0.16078  0.34084  1.0000
  C   C284      1.0  0.34610  0.18227  0.33719  1.0000
  C   C285      1.0  0.37317  0.18010  0.33629  1.0000
  C   C286      1.0  0.38374  0.15490  0.34066  1.0000
  C   C287      1.0  0.36801  0.13232  0.34279  1.0000
  C   C288      1.0  0.34086  0.13598  0.34463  1.0000
  H   H205      1.0  0.40333  0.15309  0.34126  1.0000
  H   H206      1.0  0.32898  0.12026  0.34414  1.0000
  H   H207      1.0  0.33808  0.20033  0.33758  1.0000
  C   C289      1.0  0.68200  0.85060  0.34075  1.0000
  C   C290      1.0  0.66536  0.82917  0.33633  1.0000
  C   C291      1.0  0.63830  0.83145  0.33439  1.0000
  C   C292      1.0  0.62781  0.85669  0.33833  1.0000
  C   C293      1.0  0.64364  0.87917  0.34154  1.0000
  C   C294      1.0  0.67077  0.87544  0.34442  1.0000
  H   H208      1.0  0.60823  0.85862  0.33784  1.0000
  H   H209      1.0  0.68269  0.89113  0.34459  1.0000
  H   H210      1.0  0.67331  0.81109  0.33699  1.0000
  C   C295      1.0  0.16029  0.16053  0.35638  1.0000
  N   N43       1.0  0.13070  0.13298  0.43090  1.0000
  C   C296      1.0  0.14869  0.15185  0.43694  1.0000
  O   O43       1.0  0.15653  0.16041  0.51975  1.0000
  C   C297      1.0  0.13839  0.17748  0.56200  1.0000
  H   H211      1.0  0.14643  0.18357  0.62649  1.0000
  H   H212      1.0  0.12007  0.16783  0.57506  1.0000
  H   H213      1.0  0.13505  0.19466  0.52111  1.0000
  C   C298      1.0  0.85121  0.85088  0.35743  1.0000
  N   N44       1.0  0.88093  0.87840  0.43149  1.0000
  C   C299      1.0  0.86298  0.85949  0.43777  1.0000
  O   O44       1.0  0.85531  0.85085  0.52068  1.0000
  C   C300      1.0  0.87361  0.83391  0.56265  1.0000
  H   H214      1.0  0.86568  0.82774  0.62722  1.0000
  H   H215      1.0  0.89187  0.84369  0.57553  1.0000
  H   H216      1.0  0.87705  0.81676  0.52166  1.0000
  C   C301      1.0  0.85091  0.16028  0.35734  1.0000
  N   N45       1.0  0.87833  0.13048  0.43143  1.0000
  C   C302      1.0  0.85944  0.14845  0.43767  1.0000
  O   O45       1.0  0.85075  0.15609  0.52056  1.0000
  C   C303      1.0  0.83381  0.13776  0.56237  1.0000
  H   H217      1.0  0.82760  0.14567  0.62692  1.0000
  H   H218      1.0  0.84361  0.11950  0.57528  1.0000
  H   H219      1.0  0.81669  0.13431  0.52126  1.0000
  C   C304      1.0  0.16054  0.85123  0.35650  1.0000
  N   N46       1.0  0.13296  0.88081  0.43098  1.0000
  C   C305      1.0  0.15185  0.86284  0.43703  1.0000
  O   O46       1.0  0.16044  0.85503  0.51985  1.0000
  C   C306      1.0  0.17748  0.87320  0.56204  1.0000
  H   H220      1.0  0.18359  0.86519  0.62655  1.0000
  H   H221      1.0  0.16780  0.89151  0.57508  1.0000
  H   H222      1.0  0.19465  0.87657  0.52112  1.0000
  N   N47       1.0  0.10737  0.99149  0.39600  1.0000
  C   C307      1.0  0.10875  0.01761  0.40094  1.0000
  C   C308      1.0  0.09886  0.03209  0.32801  1.0000
  O   O47       1.0  0.11732  0.02894  0.47869  1.0000
  C   C309      1.0  0.09848  0.02925  0.54977  1.0000
  H   H223      1.0  0.10701  0.03871  0.60822  1.0000
  H   H224      1.0  0.09294  0.00976  0.56955  1.0000
  H   H225      1.0  0.08132  0.04008  0.53017  1.0000
  N   N48       1.0  0.90402  0.01997  0.39580  1.0000
  C   C310      1.0  0.90266  0.99386  0.40076  1.0000
  C   C311      1.0  0.91256  0.97939  0.32782  1.0000
  O   O48       1.0  0.89409  0.98253  0.47852  1.0000
  C   C312      1.0  0.91295  0.98222  0.54959  1.0000
  H   H226      1.0  0.90442  0.97276  0.60805  1.0000
  H   H227      1.0  0.91848  0.00172  0.56935  1.0000
  H   H228      1.0  0.93010  0.97141  0.52998  1.0000
  N   N49       1.0  0.01996  0.10741  0.39575  1.0000
  C   C313      1.0  0.99384  0.10877  0.40073  1.0000
  C   C314      1.0  0.97937  0.09883  0.32784  1.0000
  O   O49       1.0  0.98252  0.11735  0.47848  1.0000
  C   C315      1.0  0.98222  0.09852  0.54960  1.0000
  H   H229      1.0  0.97276  0.10705  0.60804  1.0000
  H   H230      1.0  0.00172  0.09299  0.56936  1.0000
  H   H231      1.0  0.97140  0.08135  0.53005  1.0000
  N   N50       1.0  0.99145  0.90406  0.39580  1.0000
  C   C316      1.0  0.01757  0.90270  0.40079  1.0000
  C   C317      1.0  0.03204  0.91262  0.32788  1.0000
  O   O50       1.0  0.02889  0.89413  0.47855  1.0000
  C   C318      1.0  0.02919  0.91297  0.54965  1.0000
  H   H232      1.0  0.03865  0.90444  0.60810  1.0000
  H   H233      1.0  0.00969  0.91850  0.56940  1.0000
  H   H234      1.0  0.04001  0.93013  0.53008  1.0000
  N   N51       1.0  0.18519  0.29418  0.41088  1.0000
  C   C319      1.0  0.19409  0.26966  0.41434  1.0000
  C   C320      1.0  0.18335  0.25138  0.35465  1.0000
  O   O51       1.0  0.21350  0.26402  0.47343  1.0000
  C   C321      1.0  0.20430  0.25677  0.56127  1.0000
  H   H235      1.0  0.22095  0.25256  0.60357  1.0000
  H   H236      1.0  0.19233  0.23948  0.55818  1.0000
  H   H237      1.0  0.19345  0.27239  0.59282  1.0000
  N   N52       1.0  0.82632  0.71724  0.41409  1.0000
  C   C322      1.0  0.81744  0.74177  0.41721  1.0000
  C   C323      1.0  0.82823  0.76000  0.35742  1.0000
  O   O52       1.0  0.79797  0.74746  0.47602  1.0000
  C   C324      1.0  0.80710  0.75485  0.56380  1.0000
  H   H238      1.0  0.79041  0.75909  0.60590  1.0000
  H   H239      1.0  0.81904  0.77216  0.56054  1.0000
  H   H240      1.0  0.81796  0.73930  0.59573  1.0000
  N   N53       1.0  0.71730  0.18527  0.41385  1.0000
  C   C325      1.0  0.74183  0.19416  0.41690  1.0000
  C   C326      1.0  0.76006  0.18335  0.35717  1.0000
  O   O53       1.0  0.74751  0.21365  0.47562  1.0000
  C   C327      1.0  0.75490  0.20455  0.56347  1.0000
  H   H241      1.0  0.75914  0.22125  0.60549  1.0000
  H   H242      1.0  0.77220  0.19260  0.56028  1.0000
  H   H243      1.0  0.73933  0.19371  0.59543  1.0000
  N   N54       1.0  0.29421  0.82642  0.41118  1.0000
  C   C328      1.0  0.26968  0.81754  0.41468  1.0000
  C   C329      1.0  0.25140  0.82825  0.35493  1.0000
  O   O54       1.0  0.26405  0.79813  0.47383  1.0000
  C   C330      1.0  0.25678  0.80736  0.56162  1.0000
  H   H244      1.0  0.25257  0.79072  0.60398  1.0000
  H   H245      1.0  0.23948  0.81932  0.55847  1.0000
  H   H246      1.0  0.27238  0.81823  0.59317  1.0000
  C   C331      1.0  0.84588  0.30244  0.33971  1.0000
  N   N55       1.0  0.84765  0.25981  0.39956  1.0000
  C   C332      1.0  0.85686  0.28438  0.39990  1.0000
  O   O55       1.0  0.87572  0.29086  0.46009  1.0000
  C   C333      1.0  0.86593  0.29711  0.54812  1.0000
  H   H247      1.0  0.88220  0.30215  0.59108  1.0000
  H   H248      1.0  0.85602  0.28070  0.57855  1.0000
  H   H249      1.0  0.85290  0.31362  0.54569  1.0000
  C   C334      1.0  0.16570  0.70908  0.33929  1.0000
  N   N56       1.0  0.16392  0.75172  0.39903  1.0000
  C   C335      1.0  0.15474  0.72714  0.39950  1.0000
  O   O56       1.0  0.13589  0.72067  0.45976  1.0000
  C   C336      1.0  0.14571  0.71441  0.54773  1.0000
  H   H250      1.0  0.12945  0.70937  0.59075  1.0000
  H   H251      1.0  0.15564  0.73080  0.57814  1.0000
  H   H252      1.0  0.15872  0.69788  0.54522  1.0000
  C   C337      1.0  0.30245  0.16557  0.33926  1.0000
  N   N57       1.0  0.25981  0.16383  0.39890  1.0000
  C   C338      1.0  0.28438  0.15463  0.39947  1.0000
  O   O57       1.0  0.29085  0.13581  0.45986  1.0000
  C   C339      1.0  0.29704  0.14568  0.54783  1.0000
  H   H253      1.0  0.30208  0.12944  0.59096  1.0000
  H   H254      1.0  0.28061  0.15559  0.57808  1.0000
  H   H255      1.0  0.31355  0.15872  0.54538  1.0000
  C   C340      1.0  0.70908  0.84572  0.33986  1.0000
  N   N58       1.0  0.75169  0.84753  0.39976  1.0000
  C   C341      1.0  0.72712  0.85673  0.40002  1.0000
  O   O58       1.0  0.72064  0.87564  0.46004  1.0000
  C   C342      1.0  0.71432  0.86590  0.54808  1.0000
  H   H256      1.0  0.70928  0.88220  0.59091  1.0000
  H   H257      1.0  0.73070  0.85598  0.57868  1.0000
  H   H258      1.0  0.69778  0.85289  0.54561  1.0000
  N   N59       1.0  0.36663  0.08695  0.38702  1.0000
  C   C343      1.0  0.37472  0.06188  0.39008  1.0000
  C   C344      1.0  0.39715  0.05461  0.34182  1.0000
  O   O59       1.0  0.36114  0.04484  0.44173  1.0000
  C   C345      1.0  0.36883  0.04488  0.53488  1.0000
  H   H259      1.0  0.35715  0.03071  0.57054  1.0000
  H   H260      1.0  0.36556  0.06367  0.56607  1.0000
  H   H261      1.0  0.38905  0.03948  0.54255  1.0000
  N   N60       1.0  0.64444  0.92425  0.38911  1.0000
  C   C346      1.0  0.63629  0.94930  0.39234  1.0000
  C   C347      1.0  0.61461  0.95682  0.34052  1.0000
  O   O60       1.0  0.64898  0.96606  0.44779  1.0000
  C   C348      1.0  0.63982  0.96542  0.53928  1.0000
  H   H262      1.0  0.65086  0.97939  0.57823  1.0000
  H   H263      1.0  0.64262  0.94646  0.56965  1.0000
  H   H264      1.0  0.61948  0.97075  0.54338  1.0000
  N   N61       1.0  0.92455  0.36658  0.38708  1.0000
  C   C349      1.0  0.94963  0.37465  0.39012  1.0000
  C   C350      1.0  0.95690  0.39709  0.34188  1.0000
  O   O61       1.0  0.96668  0.36106  0.44174  1.0000
  C   C351      1.0  0.96664  0.36874  0.53490  1.0000
  H   H265      1.0  0.98081  0.35706  0.57052  1.0000
  H   H266      1.0  0.94786  0.36549  0.56611  1.0000
  H   H267      1.0  0.97206  0.38897  0.54258  1.0000
  N   N62       1.0  0.08723  0.64440  0.38906  1.0000
  C   C352      1.0  0.06219  0.63624  0.39230  1.0000
  C   C353      1.0  0.05467  0.61456  0.34043  1.0000
  O   O62       1.0  0.04543  0.64891  0.44779  1.0000
  C   C354      1.0  0.04608  0.63974  0.53927  1.0000
  H   H268      1.0  0.03211  0.65077  0.57825  1.0000
  H   H269      1.0  0.06505  0.64255  0.56962  1.0000
  H   H270      1.0  0.04077  0.61940  0.54336  1.0000
  C   C355      1.0  0.63246  0.10694  0.35406  1.0000
  N   N63       1.0  0.60220  0.07444  0.39893  1.0000
  C   C356      1.0  0.61034  0.09936  0.40352  1.0000
  O   O63       1.0  0.59650  0.11591  0.45631  1.0000
  C   C357      1.0  0.60494  0.11625  0.54865  1.0000
  H   H271      1.0  0.59298  0.12995  0.58540  1.0000
  H   H272      1.0  0.62498  0.12250  0.55427  1.0000
  H   H273      1.0  0.60272  0.09736  0.58022  1.0000
  C   C358      1.0  0.37901  0.90455  0.35033  1.0000
  N   N64       1.0  0.40894  0.93704  0.39777  1.0000
  C   C359      1.0  0.40069  0.91216  0.40205  1.0000
  O   O64       1.0  0.41391  0.89566  0.45695  1.0000
  C   C360      1.0  0.40457  0.89561  0.54823  1.0000
  H   H274      1.0  0.41608  0.88194  0.58684  1.0000
  H   H275      1.0  0.38446  0.88949  0.55164  1.0000
  H   H276      1.0  0.40659  0.91457  0.57946  1.0000
  C   C361      1.0  0.10698  0.37896  0.35034  1.0000
  N   N65       1.0  0.07448  0.40887  0.39779  1.0000
  C   C362      1.0  0.09937  0.40063  0.40206  1.0000
  O   O65       1.0  0.11587  0.41387  0.45695  1.0000
  C   C363      1.0  0.11592  0.40453  0.54824  1.0000
  H   H277      1.0  0.12959  0.41604  0.58683  1.0000
  H   H278      1.0  0.12205  0.38442  0.55166  1.0000
  H   H279      1.0  0.09697  0.40654  0.57947  1.0000
  C   C364      1.0  0.90456  0.63238  0.35398  1.0000
  N   N66       1.0  0.93706  0.60212  0.39891  1.0000
  C   C365      1.0  0.91214  0.61026  0.40348  1.0000
  O   O66       1.0  0.89558  0.59643  0.45629  1.0000
  C   C366      1.0  0.89525  0.60489  0.54861  1.0000
  H   H280      1.0  0.88155  0.59294  0.58539  1.0000
  H   H281      1.0  0.88901  0.62492  0.55421  1.0000
  H   H282      1.0  0.91414  0.60266  0.58019  1.0000
  N   N67       1.0  0.51986  0.02106  0.39941  1.0000
  C   C367      1.0  0.49375  0.02224  0.40581  1.0000
  C   C368      1.0  0.47868  0.00614  0.34952  1.0000
  O   O67       1.0  0.48324  0.03886  0.46711  1.0000
  C   C369      1.0  0.48019  0.02767  0.55516  1.0000
  H   H283      1.0  0.47170  0.04216  0.59928  1.0000
  H   H284      1.0  0.49873  0.02194  0.58374  1.0000
  H   H285      1.0  0.46728  0.01105  0.55350  1.0000
  N   N68       1.0  0.99046  0.51979  0.39945  1.0000
  C   C370      1.0  0.98929  0.49368  0.40584  1.0000
  C   C371      1.0  0.00539  0.47861  0.34954  1.0000
  O   O68       1.0  0.97267  0.48316  0.46714  1.0000
  C   C372      1.0  0.98385  0.48013  0.55520  1.0000
  H   H286      1.0  0.96937  0.47164  0.59932  1.0000
  H   H287      1.0  0.98957  0.49867  0.58377  1.0000
  H   H288      1.0  0.00048  0.46722  0.55356  1.0000
  C   C373      1.0  0.25550  0.40660  0.35646  1.0000
  N   N69       1.0  0.22311  0.37878  0.41578  1.0000
  C   C374      1.0  0.24777  0.38743  0.41867  1.0000
  O   O69       1.0  0.26427  0.37605  0.47847  1.0000
  C   C375      1.0  0.26441  0.38838  0.56524  1.0000
  H   H289      1.0  0.27804  0.37817  0.60824  1.0000
  H   H290      1.0  0.24545  0.38751  0.59717  1.0000
  H   H291      1.0  0.27063  0.40844  0.56029  1.0000
  C   C376      1.0  0.75594  0.60492  0.35797  1.0000
  N   N70       1.0  0.78830  0.63262  0.41810  1.0000
  C   C377      1.0  0.76362  0.62404  0.42047  1.0000
  O   O70       1.0  0.74705  0.63541  0.48006  1.0000
  C   C378      1.0  0.74678  0.62304  0.56675  1.0000
  H   H292      1.0  0.73310  0.63324  0.60957  1.0000
  H   H293      1.0  0.76569  0.62387  0.59901  1.0000
  H   H294      1.0  0.74053  0.60299  0.56158  1.0000
  C   C379      1.0  0.60490  0.25555  0.35818  1.0000
  N   N71       1.0  0.63263  0.22320  0.41822  1.0000
  C   C380      1.0  0.62402  0.24787  0.42065  1.0000
  O   O71       1.0  0.63539  0.26444  0.48026  1.0000
  C   C381      1.0  0.62301  0.26470  0.56696  1.0000
  H   H295      1.0  0.63321  0.27837  0.60980  1.0000
  H   H296      1.0  0.62384  0.24579  0.59918  1.0000
  H   H297      1.0  0.60296  0.27094  0.56178  1.0000
  C   C382      1.0  0.40655  0.75601  0.35627  1.0000
  N   N72       1.0  0.37877  0.78841  0.41571  1.0000
  C   C383      1.0  0.38739  0.76375  0.41852  1.0000
  O   O72       1.0  0.37601  0.74724  0.47830  1.0000
  C   C384      1.0  0.38834  0.74709  0.56507  1.0000
  H   H298      1.0  0.37814  0.73346  0.60805  1.0000
  H   H299      1.0  0.38748  0.76604  0.59703  1.0000
  H   H300      1.0  0.40840  0.74087  0.56011  1.0000
  N   N73       1.0  0.77537  0.41615  0.38692  1.0000
  C   C385      1.0  0.80034  0.40776  0.38903  1.0000
  C   C386      1.0  0.80785  0.38759  0.33042  1.0000
  O   O73       1.0  0.81693  0.41812  0.45076  1.0000
  C   C387      1.0  0.81466  0.40680  0.53892  1.0000
  H   H301      1.0  0.82868  0.41606  0.58303  1.0000
  H   H302      1.0  0.81886  0.38618  0.53749  1.0000
  H   H303      1.0  0.79550  0.40991  0.56737  1.0000
  N   N74       1.0  0.23603  0.59537  0.38484  1.0000
  C   C388      1.0  0.21105  0.60372  0.38677  1.0000
  C   C389      1.0  0.20355  0.62387  0.32806  1.0000
  O   O74       1.0  0.19444  0.59337  0.44846  1.0000
  C   C390      1.0  0.19669  0.60469  0.53663  1.0000
  H   H304      1.0  0.18265  0.59544  0.58069  1.0000
  H   H305      1.0  0.19251  0.62531  0.53520  1.0000
  H   H306      1.0  0.21584  0.60156  0.56515  1.0000
  N   N75       1.0  0.41611  0.23616  0.38685  1.0000
  C   C391      1.0  0.40774  0.21118  0.38897  1.0000
  C   C392      1.0  0.38758  0.20366  0.33032  1.0000
  O   O75       1.0  0.41809  0.19460  0.45073  1.0000
  C   C393      1.0  0.40676  0.19687  0.53887  1.0000
  H   H307      1.0  0.41602  0.18286  0.58301  1.0000
  H   H308      1.0  0.38614  0.19267  0.53741  1.0000
  H   H309      1.0  0.40986  0.21604  0.56731  1.0000
  N   N76       1.0  0.59530  0.77547  0.38486  1.0000
  C   C394      1.0  0.60367  0.80045  0.38679  1.0000
  C   C395      1.0  0.62384  0.80794  0.32811  1.0000
  O   O76       1.0  0.59332  0.81707  0.44845  1.0000
  C   C396      1.0  0.60462  0.81482  0.53663  1.0000
  H   H310      1.0  0.59538  0.82886  0.58067  1.0000
  H   H311      1.0  0.62525  0.81899  0.53523  1.0000
  H   H312      1.0  0.60149  0.79567  0.56517  1.0000
  N   N77       1.0  0.31592  0.51989  0.41570  1.0000
  C   C397      1.0  0.31581  0.49366  0.42117  1.0000
  C   C398      1.0  0.31615  0.47908  0.34049  1.0000
  O   O77       1.0  0.31561  0.48194  0.50387  1.0000
  C   C399      1.0  0.29144  0.48406  0.55058  1.0000
  H   H313      1.0  0.29310  0.47370  0.61428  1.0000
  H   H314      1.0  0.27575  0.47542  0.51192  1.0000
  H   H315      1.0  0.28678  0.50412  0.56564  1.0000
  N   N78       1.0  0.69562  0.49169  0.41685  1.0000
  C   C400      1.0  0.69575  0.51793  0.42224  1.0000
  C   C401      1.0  0.69530  0.53248  0.34151  1.0000
  O   O78       1.0  0.69605  0.52968  0.50488  1.0000
  C   C402      1.0  0.72024  0.52746  0.55147  1.0000
  H   H316      1.0  0.71866  0.53786  0.61510  1.0000
  H   H317      1.0  0.73595  0.53599  0.51267  1.0000
  H   H318      1.0  0.72479  0.50738  0.56667  1.0000
  N   N79       1.0  0.49164  0.31586  0.41690  1.0000
  C   C403      1.0  0.51787  0.31572  0.42233  1.0000
  C   C404      1.0  0.53243  0.31618  0.34161  1.0000
  O   O79       1.0  0.52961  0.31541  0.50499  1.0000
  C   C405      1.0  0.52739  0.29122  0.55155  1.0000
  H   H319      1.0  0.53778  0.29279  0.61519  1.0000
  H   H320      1.0  0.53592  0.27551  0.51273  1.0000
  H   H321      1.0  0.50731  0.28666  0.56669  1.0000
  N   N80       1.0  0.51980  0.69552  0.41558  1.0000
  C   C406      1.0  0.49357  0.69564  0.42102  1.0000
  C   C407      1.0  0.47901  0.69537  0.34031  1.0000
  O   O80       1.0  0.48184  0.69581  0.50370  1.0000
  C   C408      1.0  0.48396  0.71997  0.55051  1.0000
  H   H322      1.0  0.47359  0.71830  0.61418  1.0000
  H   H323      1.0  0.47533  0.73567  0.51190  1.0000
  H   H324      1.0  0.50402  0.72463  0.56561  1.0000
  C   C409      1.0  0.38738  0.34864  0.34901  1.0000
  N   N81       1.0  0.34762  0.36747  0.39924  1.0000
  C   C410      1.0  0.36519  0.34805  0.40490  1.0000
  O   O81       1.0  0.36024  0.32848  0.46413  1.0000
  C   C411      1.0  0.37052  0.33314  0.55267  1.0000
  H   H325      1.0  0.36572  0.31668  0.59512  1.0000
  H   H326      1.0  0.36207  0.35035  0.58306  1.0000
  H   H327      1.0  0.39148  0.33504  0.55114  1.0000
  C   C412      1.0  0.62409  0.66297  0.34851  1.0000
  N   N82       1.0  0.66383  0.64418  0.39909  1.0000
  C   C413      1.0  0.64628  0.66363  0.40442  1.0000
  O   O82       1.0  0.65124  0.68326  0.46335  1.0000
  C   C414      1.0  0.64096  0.67872  0.55195  1.0000
  H   H328      1.0  0.64576  0.69523  0.59415  1.0000
  H   H329      1.0  0.64940  0.66155  0.58261  1.0000
  H   H330      1.0  0.62000  0.67683  0.55048  1.0000
  C   C415      1.0  0.66288  0.38742  0.34946  1.0000
  N   N83       1.0  0.64407  0.34767  0.39987  1.0000
  C   C416      1.0  0.66350  0.36524  0.40540  1.0000
  O   O83       1.0  0.68308  0.36029  0.46456  1.0000
  C   C417      1.0  0.67846  0.37059  0.55309  1.0000
  H   H331      1.0  0.69493  0.36579  0.59548  1.0000
  H   H332      1.0  0.66125  0.36214  0.58358  1.0000
  H   H333      1.0  0.67656  0.39155  0.55154  1.0000
  C   C418      1.0  0.34853  0.62415  0.34813  1.0000
  N   N84       1.0  0.36733  0.66391  0.39849  1.0000
  C   C419      1.0  0.34789  0.64635  0.40396  1.0000
  O   O84       1.0  0.32827  0.65132  0.46295  1.0000
  C   C420      1.0  0.33285  0.64106  0.55157  1.0000
  H   H334      1.0  0.31635  0.64587  0.59382  1.0000
  H   H335      1.0  0.35003  0.64951  0.58214  1.0000
  H   H336      1.0  0.33474  0.62010  0.55014  1.0000
