data_image0
_chemical_formula_structural       CNC2NC4NC18H14C2NC16H12C3NC2NC5NC4NC18H14CNC16H12C11H11CNCNC4NC16H13C4H3NH2C4H3NH2C4H3NH2C4H3NH2C4H3NH2C4H3NH2C4H3NH2C4H3NH2C4H3NH2C4H3NH2C4H3NH2C4H3NH2C7NC12H12C2NC3NC3NC18H14C12H12C3NC3NC3NC18H14C3NC3NC2NC5NC20H15C8NC14H13C4H2C4HNH2C4H2C4HNH2C4H2C4HNH2C4H2C4HNH2C4H2C4HNH2C4H2C4HNH2C4H2C4HNH2C4H2C4HNH2C4H2C4HNH2C4H2C4HNH2C4H2C4HNH2C4H2C4HNH2
_chemical_formula_sum              "C408 N48 H276"
_cell_length_a       68.7528
_cell_length_b       68.7529
_cell_length_c       14.9649
_cell_angle_alpha    90.0014
_cell_angle_beta     89.9714
_cell_angle_gamma    120

_space_group_name_H-M_alt    "P 1"
_space_group_IT_number       1

loop_
  _space_group_symop_operation_xyz
  'x, y, z'

loop_
  _atom_site_type_symbol
  _atom_site_label
  _atom_site_symmetry_multiplicity
  _atom_site_fract_x
  _atom_site_fract_y
  _atom_site_fract_z
  _atom_site_occupancy
  C   C1        1.0  0.27573  0.51299  0.31920  1.0000
  N   N1        1.0  0.26837  0.47828  0.33611  1.0000
  C   C2        1.0  0.29104  0.49084  0.32995  1.0000
  C   C3        1.0  0.30746  0.48408  0.33543  1.0000
  N   N2        1.0  0.28220  0.44265  0.33422  1.0000
  C   C4        1.0  0.28378  0.42386  0.33933  1.0000
  C   C5        1.0  0.30665  0.43115  0.34865  1.0000
  C   C6        1.0  0.31822  0.45433  0.34856  1.0000
  C   C7        1.0  0.26609  0.40117  0.33471  1.0000
  N   N3        1.0  0.23276  0.40699  0.33613  1.0000
  C   C8        1.0  0.21006  0.39446  0.33065  1.0000
  C   C9        1.0  0.22540  0.37230  0.31951  1.0000
  C   C10       1.0  0.21744  0.46158  0.34174  1.0000
  C   C11       1.0  0.23515  0.48422  0.33762  1.0000
  C   C12       1.0  0.22939  0.50148  0.34005  1.0000
  C   C13       1.0  0.22105  0.50677  0.26319  1.0000
  C   C14       1.0  0.21708  0.52497  0.26393  1.0000
  C   C15       1.0  0.22142  0.53848  0.34111  1.0000
  C   C16       1.0  0.15852  0.37889  0.25250  1.0000
  C   C17       1.0  0.13512  0.36428  0.25159  1.0000
  C   C18       1.0  0.27229  0.38420  0.33367  1.0000
  C   C19       1.0  0.28917  0.35367  0.33724  1.0000
  C   C20       1.0  0.29044  0.36578  0.25869  1.0000
  C   C21       1.0  0.28212  0.38078  0.25677  1.0000
  C   C22       1.0  0.33045  0.50129  0.33753  1.0000
  C   C23       1.0  0.34279  0.50961  0.25757  1.0000
  C   C24       1.0  0.36484  0.52801  0.25946  1.0000
  C   C25       1.0  0.37510  0.53867  0.34103  1.0000
  H   H1        1.0  0.37300  0.53415  0.19999  1.0000
  H   H2        1.0  0.33557  0.50277  0.19729  1.0000
  H   H3        1.0  0.27442  0.52709  0.31245  1.0000
  H   H4        1.0  0.26048  0.46246  0.34888  1.0000
  H   H5        1.0  0.24070  0.42284  0.34844  1.0000
  H   H6        1.0  0.33527  0.46414  0.35434  1.0000
  H   H7        1.0  0.31398  0.42144  0.35477  1.0000
  H   H8        1.0  0.28405  0.38982  0.19980  1.0000
  H   H9        1.0  0.29840  0.36459  0.20290  1.0000
  H   H10       1.0  0.22674  0.35822  0.31275  1.0000
  H   H11       1.0  0.16661  0.38603  0.19379  1.0000
  H   H12       1.0  0.12691  0.36090  0.19163  1.0000
  H   H13       1.0  0.21108  0.52834  0.20695  1.0000
  H   H14       1.0  0.21823  0.49769  0.20564  1.0000
  C   C26       1.0  0.54564  0.76336  0.31823  1.0000
  C   C27       1.0  0.56778  0.80081  0.32962  1.0000
  N   N4        1.0  0.61594  0.84015  0.33462  1.0000
  C   C28       1.0  0.63472  0.86052  0.33984  1.0000
  C   C29       1.0  0.62743  0.87609  0.34943  1.0000
  C   C30       1.0  0.60425  0.86448  0.34947  1.0000
  C   C31       1.0  0.65741  0.86552  0.33507  1.0000
  C   C32       1.0  0.66413  0.81620  0.33110  1.0000
  C   C33       1.0  0.68629  0.85370  0.31994  1.0000
  C   C34       1.0  0.59701  0.75647  0.34220  1.0000
  C   C35       1.0  0.55186  0.71486  0.26365  1.0000
  C   C36       1.0  0.53366  0.69270  0.26441  1.0000
  C   C37       1.0  0.67969  0.78020  0.25292  1.0000
  C   C38       1.0  0.69431  0.77143  0.25200  1.0000
  C   C39       1.0  0.67438  0.88869  0.33401  1.0000
  C   C40       1.0  0.69281  0.92525  0.25894  1.0000
  C   C41       1.0  0.67780  0.90194  0.25710  1.0000
  C   C42       1.0  0.54901  0.83380  0.25796  1.0000
  C   C43       1.0  0.53062  0.83745  0.25985  1.0000
  H   H15       1.0  0.52452  0.83951  0.20038  1.0000
  H   H16       1.0  0.55590  0.83347  0.19770  1.0000
  H   H17       1.0  0.53154  0.74795  0.31168  1.0000
  H   H18       1.0  0.59443  0.87170  0.35533  1.0000
  H   H19       1.0  0.63714  0.89313  0.35564  1.0000
  H   H20       1.0  0.66874  0.89482  0.20019  1.0000
  H   H21       1.0  0.69395  0.93439  0.20320  1.0000
  H   H22       1.0  0.70037  0.86913  0.31321  1.0000
  H   H23       1.0  0.67257  0.78116  0.19422  1.0000
  H   H24       1.0  0.69769  0.76658  0.19205  1.0000
  H   H25       1.0  0.53033  0.68330  0.20752  1.0000
  H   H26       1.0  0.56099  0.72111  0.20616  1.0000
  C   C44       1.0  0.27519  0.76283  0.31821  1.0000
  C   C45       1.0  0.29525  0.78288  0.31850  1.0000
  C   C46       1.0  0.29058  0.80029  0.33057  1.0000
  N   N5        1.0  0.26789  0.79023  0.33557  1.0000
  C   C47       1.0  0.25779  0.76756  0.32937  1.0000
  C   C48       1.0  0.23461  0.75114  0.33507  1.0000
  N   N6        1.0  0.21844  0.77639  0.33390  1.0000
  C   C49       1.0  0.19807  0.77481  0.33895  1.0000
  C   C50       1.0  0.18249  0.75194  0.34820  1.0000
  C   C51       1.0  0.19409  0.74037  0.34822  1.0000
  C   C52       1.0  0.19307  0.79250  0.33427  1.0000
  C   C53       1.0  0.20952  0.81573  0.33003  1.0000
  N   N7        1.0  0.23222  0.82584  0.33599  1.0000
  C   C54       1.0  0.24240  0.84854  0.33054  1.0000
  C   C55       1.0  0.22500  0.85329  0.32016  1.0000
  C   C56       1.0  0.20489  0.83321  0.31969  1.0000
  C   C57       1.0  0.26562  0.86491  0.33551  1.0000
  N   N8        1.0  0.28177  0.83959  0.33567  1.0000
  C   C58       1.0  0.30213  0.84115  0.34139  1.0000
  C   C59       1.0  0.30706  0.82344  0.33740  1.0000
  C   C60       1.0  0.33007  0.82919  0.33994  1.0000
  C   C61       1.0  0.34376  0.83758  0.26317  1.0000
  C   C62       1.0  0.36592  0.84154  0.26403  1.0000
  C   C63       1.0  0.37504  0.83715  0.34123  1.0000
  C   C64       1.0  0.27190  0.88807  0.33347  1.0000
  C   C65       1.0  0.27841  0.90011  0.25221  1.0000
  C   C66       1.0  0.28716  0.92350  0.25132  1.0000
  C   C67       1.0  0.28973  0.93555  0.33140  1.0000
  C   C68       1.0  0.16990  0.78630  0.33324  1.0000
  C   C69       1.0  0.12249  0.76941  0.33679  1.0000
  C   C70       1.0  0.13335  0.76819  0.25820  1.0000
  C   C71       1.0  0.15667  0.77650  0.25632  1.0000
  C   C72       1.0  0.22884  0.72815  0.33717  1.0000
  C   C73       1.0  0.22482  0.71582  0.25721  1.0000
  C   C74       1.0  0.22120  0.69378  0.25910  1.0000
  C   C75       1.0  0.22157  0.68350  0.34067  1.0000
  H   H27       1.0  0.21917  0.68563  0.19964  1.0000
  H   H28       1.0  0.22523  0.72306  0.19693  1.0000
  H   H29       1.0  0.31066  0.78418  0.31194  1.0000
  H   H30       1.0  0.25999  0.79811  0.34904  1.0000
  H   H31       1.0  0.24015  0.81788  0.34719  1.0000
  H   H32       1.0  0.18686  0.72332  0.35390  1.0000
  H   H33       1.0  0.16544  0.74460  0.35422  1.0000
  H   H34       1.0  0.16380  0.77459  0.19934  1.0000
  H   H35       1.0  0.12422  0.76022  0.20243  1.0000
  H   H36       1.0  0.18947  0.83187  0.31301  1.0000
  H   H37       1.0  0.27746  0.89203  0.19349  1.0000
  H   H38       1.0  0.29203  0.93173  0.19138  1.0000
  H   H39       1.0  0.37534  0.84759  0.20713  1.0000
  H   H40       1.0  0.33753  0.84043  0.20561  1.0000
  C   C76       1.0  0.78667  0.54863  0.33061  1.0000
  N   N9        1.0  0.79551  0.59682  0.33486  1.0000
  C   C77       1.0  0.79393  0.61561  0.33982  1.0000
  C   C78       1.0  0.77106  0.60832  0.34898  1.0000
  C   C79       1.0  0.75948  0.58514  0.34900  1.0000
  C   C80       1.0  0.81163  0.63830  0.33523  1.0000
  C   C81       1.0  0.86767  0.64501  0.33137  1.0000
  C   C82       1.0  0.85234  0.66719  0.32068  1.0000
  C   C83       1.0  0.86027  0.57788  0.34208  1.0000
  C   C84       1.0  0.85667  0.53268  0.26372  1.0000
  C   C85       1.0  0.86063  0.51448  0.26447  1.0000
  C   C86       1.0  0.91920  0.66058  0.25275  1.0000
  C   C87       1.0  0.94259  0.67519  0.25172  1.0000
  C   C88       1.0  0.80543  0.65527  0.33416  1.0000
  C   C89       1.0  0.78732  0.67371  0.25909  1.0000
  C   C90       1.0  0.79566  0.65873  0.25718  1.0000
  C   C91       1.0  0.73495  0.52987  0.25821  1.0000
  C   C92       1.0  0.71290  0.51147  0.26009  1.0000
  H   H41       1.0  0.70477  0.50532  0.20062  1.0000
  H   H42       1.0  0.74220  0.53670  0.19792  1.0000
  H   H43       1.0  0.80328  0.51236  0.31341  1.0000
  H   H44       1.0  0.74243  0.57533  0.35464  1.0000
  H   H45       1.0  0.76372  0.61803  0.35497  1.0000
  H   H46       1.0  0.79374  0.64968  0.20025  1.0000
  H   H47       1.0  0.77938  0.67489  0.20330  1.0000
  H   H48       1.0  0.85100  0.68128  0.31404  1.0000
  H   H49       1.0  0.91111  0.65343  0.19409  1.0000
  H   H50       1.0  0.95080  0.67856  0.19171  1.0000
  H   H51       1.0  0.86665  0.51112  0.20749  1.0000
  H   H52       1.0  0.85948  0.54176  0.20616  1.0000
  C   C93       1.0  0.44299  0.17894  0.34012  1.0000
  C   C94       1.0  0.45028  0.16336  0.34944  1.0000
  C   C95       1.0  0.47345  0.17496  0.34944  1.0000
  C   C96       1.0  0.52591  0.32459  0.26417  1.0000
  C   C97       1.0  0.54411  0.34676  0.26491  1.0000
  C   C98       1.0  0.39804  0.25924  0.25307  1.0000
  C   C99       1.0  0.38343  0.26801  0.25207  1.0000
  C   C100      1.0  0.38494  0.11424  0.25907  1.0000
  C   C101      1.0  0.39994  0.13755  0.25728  1.0000
  C   C102      1.0  0.52873  0.20567  0.25853  1.0000
  C   C103      1.0  0.54713  0.20202  0.26039  1.0000
  H   H53       1.0  0.55327  0.20001  0.20090  1.0000
  H   H54       1.0  0.52189  0.20606  0.19826  1.0000
  H   H55       1.0  0.54623  0.29154  0.31353  1.0000
  H   H56       1.0  0.48327  0.16773  0.35522  1.0000
  H   H57       1.0  0.40900  0.14470  0.20036  1.0000
  H   H58       1.0  0.38377  0.10512  0.20323  1.0000
  H   H59       1.0  0.37735  0.17034  0.31331  1.0000
  H   H60       1.0  0.40518  0.25827  0.19440  1.0000
  H   H61       1.0  0.38006  0.27285  0.19207  1.0000
  H   H62       1.0  0.54749  0.35614  0.20793  1.0000
  H   H63       1.0  0.51683  0.31833  0.20662  1.0000
  C   C104      1.0  0.78248  0.25657  0.31826  1.0000
  N   N10       1.0  0.80984  0.24922  0.33575  1.0000
  C   C105      1.0  0.81994  0.27189  0.32954  1.0000
  N   N11       1.0  0.85928  0.26307  0.33447  1.0000
  C   C106      1.0  0.87965  0.26465  0.33966  1.0000
  C   C107      1.0  0.89522  0.28751  0.34923  1.0000
  C   C108      1.0  0.88361  0.29908  0.34929  1.0000
  C   C109      1.0  0.88465  0.24696  0.33488  1.0000
  N   N12       1.0  0.84550  0.21363  0.33646  1.0000
  C   C110      1.0  0.83533  0.19093  0.33094  1.0000
  C   C111      1.0  0.87283  0.20627  0.31974  1.0000
  C   C112      1.0  0.77560  0.19832  0.34220  1.0000
  C   C113      1.0  0.77067  0.21602  0.33799  1.0000
  C   C114      1.0  0.73398  0.20186  0.26386  1.0000
  C   C115      1.0  0.71181  0.19790  0.26472  1.0000
  C   C116      1.0  0.70269  0.20233  0.34187  1.0000
  C   C117      1.0  0.79933  0.13938  0.25277  1.0000
  C   C118      1.0  0.79056  0.11599  0.25184  1.0000
  C   C119      1.0  0.90782  0.25317  0.33382  1.0000
  C   C120      1.0  0.95522  0.27005  0.33728  1.0000
  C   C121      1.0  0.94439  0.27131  0.25875  1.0000
  C   C122      1.0  0.92107  0.26300  0.25691  1.0000
  C   C123      1.0  0.84886  0.31130  0.33780  1.0000
  C   C124      1.0  0.85292  0.32365  0.25786  1.0000
  C   C125      1.0  0.85657  0.34570  0.25978  1.0000
  H   H64       1.0  0.85862  0.35386  0.20031  1.0000
  H   H65       1.0  0.85258  0.31644  0.19759  1.0000
  H   H66       1.0  0.76707  0.25526  0.31176  1.0000
  H   H67       1.0  0.81772  0.24138  0.35031  1.0000
  H   H68       1.0  0.89083  0.31612  0.35515  1.0000
  H   H69       1.0  0.91226  0.29484  0.35543  1.0000
  H   H70       1.0  0.91395  0.26495  0.20000  1.0000
  H   H71       1.0  0.95353  0.27931  0.20302  1.0000
  H   H72       1.0  0.88826  0.20761  0.31299  1.0000
  H   H73       1.0  0.80029  0.14747  0.19408  1.0000
  H   H74       1.0  0.78571  0.10777  0.19188  1.0000
  H   H75       1.0  0.70240  0.19183  0.20787  1.0000
  H   H76       1.0  0.74021  0.19898  0.20634  1.0000
  C   C126      1.0  0.20258  0.64375  0.29075  1.0000
  C   C127      1.0  0.20034  0.62210  0.28989  1.0000
  C   C128      1.0  0.22457  0.59240  0.26858  1.0000
  C   C129      1.0  0.22622  0.57285  0.26749  1.0000
  H   H77       1.0  0.23081  0.60319  0.21536  1.0000
  H   H78       1.0  0.23382  0.57018  0.21378  1.0000
  H   H79       1.0  0.19156  0.64644  0.25415  1.0000
  N   N13       1.0  0.18369  0.60566  0.24000  1.0000
  H   H80       1.0  0.17337  0.60850  0.20538  1.0000
  H   H81       1.0  0.18113  0.59042  0.23890  1.0000
  C   C130      1.0  0.41485  0.55944  0.29112  1.0000
  C   C131      1.0  0.43651  0.57886  0.29027  1.0000
  C   C132      1.0  0.46622  0.63278  0.26891  1.0000
  C   C133      1.0  0.48577  0.65398  0.26781  1.0000
  H   H82       1.0  0.45546  0.62821  0.21562  1.0000
  H   H83       1.0  0.48846  0.66423  0.21405  1.0000
  H   H84       1.0  0.41218  0.54573  0.25454  1.0000
  N   N14       1.0  0.45297  0.57865  0.24043  1.0000
  H   H85       1.0  0.45014  0.56549  0.20584  1.0000
  H   H86       1.0  0.46820  0.59133  0.23935  1.0000
  C   C134      1.0  0.49918  0.85603  0.29151  1.0000
  C   C135      1.0  0.47977  0.85828  0.29058  1.0000
  C   C136      1.0  0.42586  0.83405  0.26895  1.0000
  C   C137      1.0  0.40466  0.83240  0.26774  1.0000
  H   H87       1.0  0.43044  0.82784  0.21573  1.0000
  H   H88       1.0  0.39443  0.82483  0.21396  1.0000
  H   H89       1.0  0.51292  0.86708  0.25499  1.0000
  N   N15       1.0  0.48001  0.87496  0.24074  1.0000
  H   H90       1.0  0.49319  0.88529  0.20621  1.0000
  H   H91       1.0  0.46733  0.87751  0.23960  1.0000
  C   C138      1.0  0.87515  0.39571  0.29146  1.0000
  C   C139      1.0  0.87739  0.41736  0.29058  1.0000
  C   C140      1.0  0.85316  0.44706  0.26920  1.0000
  C   C141      1.0  0.85151  0.46661  0.26809  1.0000
  H   H92       1.0  0.84693  0.43628  0.21599  1.0000
  H   H93       1.0  0.84392  0.46928  0.21438  1.0000
  H   H94       1.0  0.88619  0.39303  0.25490  1.0000
  N   N16       1.0  0.89407  0.43381  0.24072  1.0000
  H   H95       1.0  0.90439  0.43098  0.20614  1.0000
  H   H96       1.0  0.89662  0.44905  0.23961  1.0000
  C   C142      1.0  0.66287  0.48004  0.29172  1.0000
  C   C143      1.0  0.64122  0.46062  0.29085  1.0000
  C   C144      1.0  0.61153  0.40669  0.26958  1.0000
  C   C145      1.0  0.59199  0.38550  0.26849  1.0000
  H   H97       1.0  0.62233  0.41125  0.21635  1.0000
  H   H98       1.0  0.58933  0.37524  0.21479  1.0000
  H   H99       1.0  0.66556  0.49375  0.25510  1.0000
  N   N17       1.0  0.62478  0.46083  0.24095  1.0000
  H   H100      1.0  0.62763  0.47399  0.20633  1.0000
  H   H101      1.0  0.60955  0.44815  0.23986  1.0000
  C   C146      1.0  0.57856  0.18344  0.29200  1.0000
  C   C147      1.0  0.59798  0.18120  0.29109  1.0000
  C   C148      1.0  0.65189  0.20541  0.26951  1.0000
  C   C149      1.0  0.67309  0.20707  0.26832  1.0000
  H   H102      1.0  0.64732  0.21161  0.21624  1.0000
  H   H103      1.0  0.68333  0.21462  0.21450  1.0000
  H   H104      1.0  0.56485  0.17240  0.25545  1.0000
  N   N18       1.0  0.59776  0.16454  0.24124  1.0000
  H   H105      1.0  0.58460  0.15421  0.20669  1.0000
  H   H106      1.0  0.61044  0.16198  0.24013  1.0000
  C   C150      1.0  0.08597  0.34879  0.28431  1.0000
  C   C151      1.0  0.06218  0.33666  0.28585  1.0000
  C   C152      1.0  0.01508  0.28979  0.26957  1.0000
  C   C153      1.0  0.99149  0.27839  0.26869  1.0000
  H   H107      1.0  0.02335  0.28845  0.21504  1.0000
  H   H108      1.0  0.98333  0.26882  0.21404  1.0000
  H   H109      1.0  0.09395  0.36370  0.25025  1.0000
  N   N19       1.0  0.05089  0.34517  0.24073  1.0000
  H   H110      1.0  0.05884  0.35920  0.20754  1.0000
  H   H111      1.0  0.03460  0.33780  0.24098  1.0000
  C   C154      1.0  0.70981  0.73779  0.28473  1.0000
  C   C155      1.0  0.72194  0.72612  0.28626  1.0000
  C   C156      1.0  0.76883  0.72592  0.27000  1.0000
  C   C157      1.0  0.78023  0.71372  0.26912  1.0000
  H   H112      1.0  0.77020  0.73555  0.21551  1.0000
  H   H113      1.0  0.78982  0.71515  0.21450  1.0000
  H   H114      1.0  0.69490  0.73085  0.25070  1.0000
  N   N20       1.0  0.71344  0.70632  0.24115  1.0000
  H   H115      1.0  0.69941  0.70024  0.20798  1.0000
  H   H116      1.0  0.72081  0.69741  0.24139  1.0000
  C   C158      1.0  0.32080  0.97264  0.28414  1.0000
  C   C159      1.0  0.33247  0.99644  0.28573  1.0000
  C   C160      1.0  0.33270  0.04354  0.26961  1.0000
  C   C161      1.0  0.34490  0.06714  0.26884  1.0000
  H   H117      1.0  0.32310  0.03530  0.21507  1.0000
  H   H118      1.0  0.34350  0.07532  0.21422  1.0000
  H   H119      1.0  0.32775  0.96468  0.25007  1.0000
  N   N21       1.0  0.35228  0.00774  0.24064  1.0000
  H   H120      1.0  0.35837  0.99980  0.20744  1.0000
  H   H121      1.0  0.36120  0.02403  0.24092  1.0000
  C   C162      1.0  0.99175  0.69068  0.28415  1.0000
  C   C163      1.0  0.01554  0.70281  0.28558  1.0000
  C   C164      1.0  0.06265  0.74968  0.26922  1.0000
  C   C165      1.0  0.08624  0.76108  0.26830  1.0000
  H   H122      1.0  0.05439  0.75105  0.21475  1.0000
  H   H123      1.0  0.09441  0.77067  0.21367  1.0000
  H   H124      1.0  0.98377  0.67577  0.25012  1.0000
  N   N22       1.0  0.02683  0.69430  0.24039  1.0000
  H   H125      1.0  0.01888  0.68027  0.20722  1.0000
  H   H126      1.0  0.04312  0.70167  0.24056  1.0000
  C   C166      1.0  0.36791  0.30166  0.28458  1.0000
  C   C167      1.0  0.35578  0.31333  0.28603  1.0000
  C   C168      1.0  0.30891  0.31355  0.26968  1.0000
  C   C169      1.0  0.29751  0.32575  0.26875  1.0000
  H   H127      1.0  0.30756  0.30393  0.21518  1.0000
  H   H128      1.0  0.28794  0.32433  0.21410  1.0000
  H   H129      1.0  0.38283  0.30860  0.25053  1.0000
  N   N23       1.0  0.36429  0.33312  0.24085  1.0000
  H   H130      1.0  0.37833  0.33921  0.20768  1.0000
  H   H131      1.0  0.35692  0.34204  0.24105  1.0000
  C   C170      1.0  0.75691  0.06684  0.28456  1.0000
  C   C171      1.0  0.74525  0.04304  0.28608  1.0000
  C   C172      1.0  0.74502  0.99595  0.26975  1.0000
  C   C173      1.0  0.73282  0.97235  0.26888  1.0000
  H   H132      1.0  0.75464  0.00421  0.21523  1.0000
  H   H133      1.0  0.73424  0.96419  0.21423  1.0000
  H   H134      1.0  0.74997  0.07481  0.25053  1.0000
  N   N24       1.0  0.72545  0.03176  0.24098  1.0000
  H   H135      1.0  0.71936  0.03970  0.20782  1.0000
  H   H136      1.0  0.71653  0.01546  0.24122  1.0000
  C   C174      1.0  0.29577  0.51297  0.31890  1.0000
  C   C175      1.0  0.25830  0.49090  0.33102  1.0000
  C   C176      1.0  0.30255  0.46146  0.33972  1.0000
  C   C177      1.0  0.24287  0.39440  0.33024  1.0000
  C   C178      1.0  0.20532  0.37233  0.31990  1.0000
  C   C179      1.0  0.19369  0.40131  0.33587  1.0000
  C   C180      1.0  0.19866  0.42398  0.34096  1.0000
  N   N25       1.0  0.21901  0.44278  0.33607  1.0000
  C   C181      1.0  0.19462  0.45439  0.35077  1.0000
  C   C182      1.0  0.18303  0.43121  0.34987  1.0000
  C   C183      1.0  0.22949  0.53280  0.41821  1.0000
  C   C184      1.0  0.23341  0.51459  0.41781  1.0000
  C   C185      1.0  0.17053  0.38443  0.33378  1.0000
  C   C186      1.0  0.12304  0.35481  0.33166  1.0000
  C   C187      1.0  0.13535  0.36001  0.41256  1.0000
  C   C188      1.0  0.15875  0.37469  0.41378  1.0000
  C   C189      1.0  0.27046  0.37185  0.41173  1.0000
  C   C190      1.0  0.27873  0.35681  0.41329  1.0000
  C   C191      1.0  0.34064  0.51151  0.41935  1.0000
  C   C192      1.0  0.36266  0.52991  0.42094  1.0000
  H   H137      1.0  0.36949  0.53698  0.48139  1.0000
  H   H138      1.0  0.33192  0.50593  0.47809  1.0000
  H   H139      1.0  0.31120  0.52705  0.31209  1.0000
  H   H140      1.0  0.26370  0.37424  0.46880  1.0000
  H   H141      1.0  0.27733  0.34835  0.47138  1.0000
  H   H142      1.0  0.18985  0.35828  0.31370  1.0000
  H   H143      1.0  0.18735  0.46416  0.35666  1.0000
  H   H144      1.0  0.16598  0.42147  0.35527  1.0000
  H   H145      1.0  0.16700  0.37888  0.47378  1.0000
  H   H146      1.0  0.12722  0.35403  0.47219  1.0000
  H   H147      1.0  0.23983  0.51134  0.47394  1.0000
  H   H148      1.0  0.23347  0.54244  0.47469  1.0000
  C   C193      1.0  0.54567  0.78342  0.31793  1.0000
  C   C194      1.0  0.56771  0.76802  0.33075  1.0000
  N   N26       1.0  0.58034  0.79071  0.33581  1.0000
  C   C195      1.0  0.57451  0.82398  0.33579  1.0000
  C   C196      1.0  0.59712  0.84169  0.34038  1.0000
  C   C197      1.0  0.66419  0.84907  0.33063  1.0000
  N   N27       1.0  0.65160  0.82637  0.33662  1.0000
  C   C198      1.0  0.68626  0.83359  0.32040  1.0000
  C   C199      1.0  0.65728  0.79298  0.33630  1.0000
  C   C200      1.0  0.63461  0.77529  0.34138  1.0000
  N   N28       1.0  0.61580  0.77683  0.33637  1.0000
  C   C201      1.0  0.60419  0.74085  0.35152  1.0000
  C   C202      1.0  0.62737  0.75243  0.35060  1.0000
  C   C203      1.0  0.57437  0.75154  0.33794  1.0000
  C   C204      1.0  0.55710  0.72853  0.34041  1.0000
  C   C205      1.0  0.52009  0.68356  0.34151  1.0000
  C   C206      1.0  0.52570  0.69735  0.41847  1.0000
  C   C207      1.0  0.54394  0.71947  0.41811  1.0000
  C   C208      1.0  0.67415  0.78670  0.33420  1.0000
  C   C209      1.0  0.70378  0.76885  0.33206  1.0000
  C   C210      1.0  0.69859  0.77598  0.41295  1.0000
  C   C211      1.0  0.68389  0.78468  0.41418  1.0000
  C   C212      1.0  0.68673  0.89921  0.41203  1.0000
  C   C213      1.0  0.70177  0.92254  0.41353  1.0000
  C   C214      1.0  0.70491  0.93610  0.33747  1.0000
  C   C215      1.0  0.55729  0.82974  0.33791  1.0000
  C   C216      1.0  0.54703  0.82967  0.41971  1.0000
  C   C217      1.0  0.51991  0.83701  0.34139  1.0000
  C   C218      1.0  0.52863  0.83330  0.42129  1.0000
  H   H149      1.0  0.52152  0.83303  0.48174  1.0000
  H   H150      1.0  0.55257  0.82649  0.47843  1.0000
  H   H151      1.0  0.53159  0.78477  0.31130  1.0000
  H   H152      1.0  0.59607  0.79859  0.35040  1.0000
  H   H153      1.0  0.63573  0.81846  0.34846  1.0000
  H   H154      1.0  0.68436  0.89007  0.46909  1.0000
  H   H155      1.0  0.71024  0.92960  0.47158  1.0000
  H   H156      1.0  0.70031  0.83217  0.31420  1.0000
  H   H157      1.0  0.59442  0.72381  0.35762  1.0000
  H   H158      1.0  0.63711  0.74512  0.35617  1.0000
  H   H159      1.0  0.67970  0.78875  0.47419  1.0000
  H   H160      1.0  0.70454  0.77382  0.47259  1.0000
  H   H161      1.0  0.54713  0.72916  0.47412  1.0000
  H   H162      1.0  0.51603  0.69170  0.47491  1.0000
  C   C219      1.0  0.21690  0.75604  0.33946  1.0000
  C   C220      1.0  0.28332  0.85994  0.34048  1.0000
  C   C221      1.0  0.31776  0.86397  0.35045  1.0000
  C   C222      1.0  0.30617  0.87556  0.34949  1.0000
  C   C223      1.0  0.36123  0.82901  0.41820  1.0000
  C   C224      1.0  0.33911  0.82512  0.41773  1.0000
  C   C225      1.0  0.28261  0.92322  0.41229  1.0000
  C   C226      1.0  0.27388  0.89982  0.41347  1.0000
  C   C227      1.0  0.15936  0.78808  0.41134  1.0000
  C   C228      1.0  0.13604  0.77982  0.41287  1.0000
  C   C229      1.0  0.22885  0.71794  0.41899  1.0000
  C   C230      1.0  0.22522  0.69592  0.42059  1.0000
  H   H163      1.0  0.22544  0.68907  0.48105  1.0000
  H   H164      1.0  0.23198  0.72665  0.47773  1.0000
  H   H165      1.0  0.27385  0.74741  0.31145  1.0000
  H   H166      1.0  0.16849  0.79484  0.46840  1.0000
  H   H167      1.0  0.12897  0.78119  0.47098  1.0000
  H   H168      1.0  0.22642  0.86876  0.31402  1.0000
  H   H169      1.0  0.33480  0.87124  0.35650  1.0000
  H   H170      1.0  0.31348  0.89262  0.35495  1.0000
  H   H171      1.0  0.26983  0.89156  0.47348  1.0000
  H   H172      1.0  0.28475  0.93133  0.47193  1.0000
  H   H173      1.0  0.32941  0.81867  0.47379  1.0000
  H   H174      1.0  0.36687  0.82503  0.47473  1.0000
  C   C231      1.0  0.78194  0.52649  0.31973  1.0000
  C   C232      1.0  0.80198  0.52646  0.32002  1.0000
  C   C233      1.0  0.81941  0.54856  0.33174  1.0000
  N   N29       1.0  0.80934  0.56118  0.33674  1.0000
  C   C234      1.0  0.77025  0.55539  0.33608  1.0000
  C   C235      1.0  0.77516  0.57801  0.34032  1.0000
  C   C236      1.0  0.83486  0.64508  0.33100  1.0000
  N   N30       1.0  0.84496  0.63249  0.33691  1.0000
  C   C237      1.0  0.87242  0.66716  0.32108  1.0000
  C   C238      1.0  0.88404  0.63815  0.33628  1.0000
  C   C239      1.0  0.87906  0.61548  0.34124  1.0000
  N   N31       1.0  0.85871  0.59667  0.33653  1.0000
  C   C240      1.0  0.88310  0.58506  0.35090  1.0000
  C   C241      1.0  0.89469  0.60824  0.34996  1.0000
  C   C242      1.0  0.84257  0.55524  0.33819  1.0000
  C   C243      1.0  0.84832  0.53797  0.34060  1.0000
  C   C244      1.0  0.85629  0.50097  0.34168  1.0000
  C   C245      1.0  0.84819  0.50664  0.41876  1.0000
  C   C246      1.0  0.84430  0.52487  0.41841  1.0000
  C   C247      1.0  0.90719  0.65503  0.33410  1.0000
  C   C248      1.0  0.95468  0.68466  0.33172  1.0000
  C   C249      1.0  0.94238  0.67944  0.41270  1.0000
  C   C250      1.0  0.91898  0.66476  0.41404  1.0000
  C   C251      1.0  0.80721  0.66759  0.41225  1.0000
  C   C252      1.0  0.79893  0.68264  0.41376  1.0000
  C   C253      1.0  0.78854  0.68579  0.33766  1.0000
  C   C254      1.0  0.74726  0.53818  0.33817  1.0000
  C   C255      1.0  0.73704  0.52797  0.42001  1.0000
  C   C256      1.0  0.70262  0.50081  0.34166  1.0000
  C   C257      1.0  0.71502  0.50956  0.42158  1.0000
  H   H175      1.0  0.70816  0.50249  0.48204  1.0000
  H   H176      1.0  0.74574  0.53353  0.47875  1.0000
  H   H177      1.0  0.76652  0.51241  0.31305  1.0000
  H   H178      1.0  0.81724  0.57701  0.34940  1.0000
  H   H179      1.0  0.83700  0.61659  0.34808  1.0000
  H   H180      1.0  0.81393  0.66518  0.46936  1.0000
  H   H181      1.0  0.80030  0.69107  0.47187  1.0000
  H   H182      1.0  0.88789  0.68121  0.31493  1.0000
  H   H183      1.0  0.89037  0.57529  0.35680  1.0000
  H   H184      1.0  0.91175  0.61799  0.35529  1.0000
  H   H185      1.0  0.91073  0.66056  0.47410  1.0000
  H   H186      1.0  0.95051  0.68542  0.47229  1.0000
  H   H187      1.0  0.83787  0.52812  0.47454  1.0000
  H   H188      1.0  0.84424  0.49702  0.47531  1.0000
  C   C258      1.0  0.53210  0.25606  0.31996  1.0000
  C   C259      1.0  0.53213  0.27613  0.32026  1.0000
  C   C260      1.0  0.51003  0.27146  0.33203  1.0000
  N   N32       1.0  0.49741  0.24877  0.33711  1.0000
  C   C261      1.0  0.50997  0.23866  0.33096  1.0000
  C   C262      1.0  0.50321  0.21548  0.33641  1.0000
  C   C263      1.0  0.48059  0.19777  0.34064  1.0000
  N   N33       1.0  0.46178  0.19930  0.33509  1.0000
  C   C264      1.0  0.42030  0.17394  0.33541  1.0000
  C   C265      1.0  0.41353  0.19039  0.33093  1.0000
  N   N34       1.0  0.42612  0.21309  0.33687  1.0000
  C   C266      1.0  0.41359  0.22326  0.33136  1.0000
  C   C267      1.0  0.39146  0.20587  0.32052  1.0000
  C   C268      1.0  0.39143  0.18576  0.32012  1.0000
  C   C269      1.0  0.42044  0.24648  0.33658  1.0000
  C   C270      1.0  0.44310  0.26418  0.34175  1.0000
  N   N35       1.0  0.46191  0.26263  0.33694  1.0000
  C   C271      1.0  0.48071  0.28299  0.34266  1.0000
  C   C272      1.0  0.47351  0.29862  0.35165  1.0000
  C   C273      1.0  0.45034  0.28704  0.35067  1.0000
  C   C274      1.0  0.50335  0.28793  0.33861  1.0000
  C   C275      1.0  0.52061  0.31095  0.34105  1.0000
  C   C276      1.0  0.55761  0.35592  0.34211  1.0000
  C   C277      1.0  0.55192  0.34216  0.41920  1.0000
  C   C278      1.0  0.53371  0.32002  0.41881  1.0000
  C   C279      1.0  0.40356  0.25276  0.33440  1.0000
  C   C280      1.0  0.37393  0.27061  0.33209  1.0000
  C   C281      1.0  0.37913  0.26352  0.41304  1.0000
  C   C282      1.0  0.39380  0.25479  0.41435  1.0000
  C   C283      1.0  0.40333  0.15077  0.33424  1.0000
  C   C284      1.0  0.39096  0.14022  0.41224  1.0000
  C   C285      1.0  0.37591  0.11690  0.41366  1.0000
  C   C286      1.0  0.37280  0.10336  0.33755  1.0000
  C   C287      1.0  0.52043  0.20971  0.33850  1.0000
  C   C288      1.0  0.53064  0.20972  0.42030  1.0000
  C   C289      1.0  0.55780  0.20243  0.34193  1.0000
  C   C290      1.0  0.54904  0.20609  0.42186  1.0000
  H   H189      1.0  0.55612  0.20634  0.48230  1.0000
  H   H190      1.0  0.52507  0.21287  0.47905  1.0000
  H   H191      1.0  0.54618  0.25472  0.31316  1.0000
  H   H192      1.0  0.48159  0.24084  0.34985  1.0000
  H   H193      1.0  0.44197  0.22100  0.34923  1.0000
  H   H194      1.0  0.44057  0.14631  0.35551  1.0000
  H   H195      1.0  0.39333  0.14934  0.46936  1.0000
  H   H196      1.0  0.36743  0.10982  0.47171  1.0000
  H   H197      1.0  0.37742  0.20730  0.31427  1.0000
  H   H198      1.0  0.48328  0.31567  0.35755  1.0000
  H   H199      1.0  0.44059  0.29435  0.35601  1.0000
  H   H200      1.0  0.39798  0.25073  0.47439  1.0000
  H   H201      1.0  0.37313  0.26566  0.47264  1.0000
  H   H202      1.0  0.53045  0.31036  0.47495  1.0000
  H   H203      1.0  0.56155  0.34781  0.47569  1.0000
  C   C291      1.0  0.80255  0.27661  0.31790  1.0000
  C   C292      1.0  0.78715  0.23916  0.33075  1.0000
  C   C293      1.0  0.84310  0.28832  0.33567  1.0000
  C   C294      1.0  0.86081  0.28341  0.34023  1.0000
  C   C295      1.0  0.86820  0.22374  0.33046  1.0000
  C   C296      1.0  0.85272  0.18619  0.32022  1.0000
  C   C297      1.0  0.81211  0.17456  0.33617  1.0000
  C   C298      1.0  0.79441  0.17953  0.34130  1.0000
  N   N36       1.0  0.79596  0.19988  0.33631  1.0000
  C   C299      1.0  0.75998  0.17551  0.35154  1.0000
  C   C300      1.0  0.77156  0.16392  0.35057  1.0000
  C   C301      1.0  0.74766  0.21028  0.34056  1.0000
  C   C302      1.0  0.71650  0.21050  0.41877  1.0000
  C   C303      1.0  0.73862  0.21439  0.41830  1.0000
  C   C304      1.0  0.80583  0.15140  0.33405  1.0000
  C   C305      1.0  0.78797  0.10392  0.33189  1.0000
  C   C306      1.0  0.79511  0.11623  0.41278  1.0000
  C   C307      1.0  0.80380  0.13963  0.41402  1.0000
  C   C308      1.0  0.91834  0.25133  0.41184  1.0000
  C   C309      1.0  0.94166  0.25961  0.41334  1.0000
  C   C310      1.0  0.84880  0.32148  0.41962  1.0000
  C   C311      1.0  0.85613  0.35595  0.34134  1.0000
  C   C312      1.0  0.85243  0.34351  0.42123  1.0000
  H   H204      1.0  0.85216  0.35033  0.48168  1.0000
  H   H205      1.0  0.84563  0.31275  0.47834  1.0000
  H   H206      1.0  0.80389  0.29204  0.31128  1.0000
  H   H207      1.0  0.83759  0.22158  0.34832  1.0000
  H   H208      1.0  0.90919  0.24455  0.46890  1.0000
  H   H209      1.0  0.94872  0.25819  0.47139  1.0000
  H   H210      1.0  0.85130  0.17072  0.31400  1.0000
  H   H211      1.0  0.74294  0.16824  0.35769  1.0000
  H   H212      1.0  0.76425  0.14686  0.35615  1.0000
  H   H213      1.0  0.80788  0.14788  0.47404  1.0000
  H   H214      1.0  0.79294  0.10810  0.47241  1.0000
  H   H215      1.0  0.74832  0.22088  0.47427  1.0000
  H   H216      1.0  0.71086  0.21452  0.47523  1.0000
  C   C313      1.0  0.21925  0.66164  0.34197  1.0000
  C   C314      1.0  0.21549  0.61835  0.34201  1.0000
  C   C315      1.0  0.23218  0.63613  0.39318  1.0000
  C   C316      1.0  0.23397  0.65739  0.39333  1.0000
  H   H217      1.0  0.24342  0.63384  0.43015  1.0000
  H   H218      1.0  0.24662  0.66995  0.42971  1.0000
  C   C317      1.0  0.21521  0.59752  0.34275  1.0000
  C   C318      1.0  0.21865  0.55778  0.34054  1.0000
  C   C319      1.0  0.20907  0.56292  0.41417  1.0000
  C   C320      1.0  0.20720  0.58254  0.41690  1.0000
  H   H219      1.0  0.20315  0.55204  0.46714  1.0000
  N   N37       1.0  0.19774  0.58626  0.49009  1.0000
  H   H220      1.0  0.19563  0.59919  0.49432  1.0000
  H   H221      1.0  0.19228  0.57576  0.53998  1.0000
  C   C321      1.0  0.39695  0.55822  0.34231  1.0000
  C   C322      1.0  0.44023  0.59775  0.34238  1.0000
  C   C323      1.0  0.42243  0.59666  0.39351  1.0000
  C   C324      1.0  0.40118  0.57719  0.39364  1.0000
  H   H222      1.0  0.42471  0.61019  0.43047  1.0000
  H   H223      1.0  0.38861  0.57728  0.43000  1.0000
  C   C325      1.0  0.46107  0.61832  0.34314  1.0000
  C   C326      1.0  0.50079  0.66150  0.34094  1.0000
  C   C327      1.0  0.49562  0.64679  0.41464  1.0000
  C   C328      1.0  0.47601  0.62530  0.41737  1.0000
  H   H224      1.0  0.50647  0.65177  0.46768  1.0000
  N   N38       1.0  0.47225  0.61214  0.49062  1.0000
  H   H225      1.0  0.45933  0.59709  0.49484  1.0000
  H   H226      1.0  0.48273  0.61719  0.54055  1.0000
  C   C329      1.0  0.50038  0.83934  0.34266  1.0000
  C   C330      1.0  0.46085  0.84310  0.34258  1.0000
  C   C331      1.0  0.46191  0.82639  0.39369  1.0000
  C   C332      1.0  0.48137  0.82459  0.39390  1.0000
  H   H227      1.0  0.44836  0.81512  0.43058  1.0000
  H   H228      1.0  0.48126  0.81192  0.43023  1.0000
  C   C333      1.0  0.44029  0.84337  0.34322  1.0000
  C   C334      1.0  0.39711  0.83993  0.34077  1.0000
  C   C335      1.0  0.41179  0.84948  0.41450  1.0000
  C   C336      1.0  0.43327  0.85135  0.41736  1.0000
  H   H229      1.0  0.40680  0.85536  0.46748  1.0000
  N   N39       1.0  0.44641  0.86076  0.49064  1.0000
  H   H230      1.0  0.46145  0.86288  0.49495  1.0000
  H   H231      1.0  0.44134  0.86620  0.54052  1.0000
  C   C337      1.0  0.85846  0.37781  0.34264  1.0000
  C   C338      1.0  0.86222  0.42110  0.34266  1.0000
  C   C339      1.0  0.84551  0.40331  0.39379  1.0000
  C   C340      1.0  0.84371  0.38206  0.39394  1.0000
  H   H232      1.0  0.83425  0.40560  0.43072  1.0000
  H   H233      1.0  0.83104  0.36949  0.43029  1.0000
  C   C341      1.0  0.86250  0.44194  0.34337  1.0000
  C   C342      1.0  0.85906  0.48167  0.34112  1.0000
  C   C343      1.0  0.86863  0.47653  0.41475  1.0000
  C   C344      1.0  0.87049  0.45691  0.41751  1.0000
  H   H234      1.0  0.87453  0.48740  0.46772  1.0000
  N   N40       1.0  0.87993  0.45318  0.49070  1.0000
  H   H235      1.0  0.88204  0.44025  0.49495  1.0000
  H   H236      1.0  0.88538  0.46368  0.54058  1.0000
  C   C345      1.0  0.68076  0.48126  0.34294  1.0000
  C   C346      1.0  0.63748  0.44172  0.34298  1.0000
  C   C347      1.0  0.65526  0.44282  0.39416  1.0000
  C   C348      1.0  0.67651  0.46228  0.39431  1.0000
  H   H237      1.0  0.65297  0.42928  0.43115  1.0000
  H   H238      1.0  0.68906  0.46219  0.43071  1.0000
  C   C349      1.0  0.61665  0.42116  0.34373  1.0000
  C   C350      1.0  0.57691  0.37799  0.34153  1.0000
  C   C351      1.0  0.58204  0.39271  0.41515  1.0000
  C   C352      1.0  0.60166  0.41419  0.41789  1.0000
  H   H239      1.0  0.57116  0.38774  0.46812  1.0000
  N   N41       1.0  0.60538  0.42736  0.49106  1.0000
  H   H240      1.0  0.61830  0.44240  0.49529  1.0000
  H   H241      1.0  0.59487  0.42232  0.54095  1.0000
  C   C353      1.0  0.57734  0.20012  0.34318  1.0000
  C   C354      1.0  0.61688  0.19637  0.34313  1.0000
  C   C355      1.0  0.61579  0.21307  0.39426  1.0000
  C   C356      1.0  0.59633  0.21486  0.39446  1.0000
  H   H242      1.0  0.62932  0.22432  0.43118  1.0000
  H   H243      1.0  0.59642  0.22752  0.43082  1.0000
  C   C357      1.0  0.63744  0.19610  0.34380  1.0000
  C   C358      1.0  0.68062  0.19956  0.34141  1.0000
  C   C359      1.0  0.66593  0.19002  0.41517  1.0000
  C   C360      1.0  0.64445  0.18815  0.41800  1.0000
  H   H244      1.0  0.67092  0.18415  0.46818  1.0000
  N   N42       1.0  0.63130  0.17874  0.49130  1.0000
  H   H245      1.0  0.61625  0.17661  0.49559  1.0000
  H   H246      1.0  0.63636  0.17331  0.54121  1.0000
  C   C361      1.0  0.09906  0.34155  0.33150  1.0000
  C   C362      1.0  0.05108  0.31632  0.33584  1.0000
  C   C363      1.0  0.06401  0.30887  0.38257  1.0000
  C   C364      1.0  0.08761  0.32136  0.38083  1.0000
  H   H247      1.0  0.05631  0.29435  0.41924  1.0000
  H   H248      1.0  0.09641  0.31544  0.41555  1.0000
  C   C365      1.0  0.02724  0.30350  0.34265  1.0000
  C   C366      1.0  0.97920  0.28023  0.34081  1.0000
  C   C367      1.0  0.99154  0.29359  0.41468  1.0000
  C   C368      1.0  0.01534  0.30536  0.41704  1.0000
  H   H249      1.0  0.98304  0.29565  0.46665  1.0000
  N   N43       1.0  0.02590  0.31843  0.48937  1.0000
  H   H250      1.0  0.04216  0.32705  0.49393  1.0000
  H   H251      1.0  0.01743  0.31953  0.53940  1.0000
  C   C369      1.0  0.71704  0.75812  0.33190  1.0000
  C   C370      1.0  0.74228  0.73538  0.33622  1.0000
  C   C371      1.0  0.74972  0.75576  0.38293  1.0000
  C   C372      1.0  0.73723  0.76687  0.38119  1.0000
  H   H252      1.0  0.76423  0.76259  0.41958  1.0000
  H   H253      1.0  0.74314  0.78159  0.41590  1.0000
  C   C373      1.0  0.75509  0.72435  0.34304  1.0000
  C   C374      1.0  0.77836  0.69958  0.34119  1.0000
  C   C375      1.0  0.76497  0.69854  0.41503  1.0000
  C   C376      1.0  0.75319  0.71058  0.41738  1.0000
  H   H254      1.0  0.76288  0.68797  0.46696  1.0000
  N   N44       1.0  0.74009  0.70804  0.48968  1.0000
  H   H255      1.0  0.73148  0.71570  0.49425  1.0000
  H   H256      1.0  0.73897  0.69847  0.53969  1.0000
  C   C377      1.0  0.30046  0.95954  0.33130  1.0000
  C   C378      1.0  0.32320  0.00751  0.33573  1.0000
  C   C379      1.0  0.30281  0.99456  0.38242  1.0000
  C   C380      1.0  0.29170  0.97096  0.38061  1.0000
  H   H257      1.0  0.29597  0.00225  0.41909  1.0000
  H   H258      1.0  0.27697  0.96216  0.41531  1.0000
  C   C381      1.0  0.33423  0.03135  0.34264  1.0000
  C   C382      1.0  0.35900  0.07939  0.34099  1.0000
  C   C383      1.0  0.36000  0.06702  0.41479  1.0000
  C   C384      1.0  0.34797  0.04321  0.41706  1.0000
  H   H259      1.0  0.37055  0.07549  0.46678  1.0000
  N   N45       1.0  0.35047  0.03262  0.48933  1.0000
  H   H260      1.0  0.34282  0.01636  0.49383  1.0000
  H   H261      1.0  0.36002  0.04107  0.53938  1.0000
  C   C385      1.0  0.97866  0.69792  0.33143  1.0000
  C   C386      1.0  0.02664  0.72315  0.33555  1.0000
  C   C387      1.0  0.01371  0.73059  0.38236  1.0000
  C   C388      1.0  0.99011  0.71810  0.38072  1.0000
  H   H262      1.0  0.02141  0.74511  0.41901  1.0000
  H   H263      1.0  0.98131  0.72402  0.41551  1.0000
  C   C389      1.0  0.05047  0.73595  0.34230  1.0000
  C   C390      1.0  0.09852  0.75923  0.34035  1.0000
  C   C391      1.0  0.08617  0.74584  0.41421  1.0000
  C   C392      1.0  0.06236  0.73407  0.41662  1.0000
  H   H264      1.0  0.09466  0.74376  0.46613  1.0000
  N   N46       1.0  0.05180  0.72098  0.48894  1.0000
  H   H265      1.0  0.03553  0.71236  0.49354  1.0000
  H   H266      1.0  0.06025  0.71986  0.53893  1.0000
  C   C393      1.0  0.36067  0.28134  0.33183  1.0000
  C   C394      1.0  0.33543  0.30408  0.33600  1.0000
  C   C395      1.0  0.32798  0.28370  0.38280  1.0000
  C   C396      1.0  0.34047  0.27259  0.38113  1.0000
  H   H267      1.0  0.31345  0.27688  0.41945  1.0000
  H   H268      1.0  0.33455  0.25788  0.41591  1.0000
  C   C397      1.0  0.32262  0.31510  0.34276  1.0000
  C   C398      1.0  0.29934  0.33987  0.34083  1.0000
  C   C399      1.0  0.31270  0.34090  0.41469  1.0000
  C   C400      1.0  0.32448  0.32887  0.41710  1.0000
  H   H269      1.0  0.31477  0.35146  0.46663  1.0000
  N   N47       1.0  0.33755  0.33139  0.48943  1.0000
  H   H270      1.0  0.34617  0.32374  0.49402  1.0000
  H   H271      1.0  0.33865  0.34096  0.53942  1.0000
  C   C401      1.0  0.77724  0.07993  0.33172  1.0000
  C   C402      1.0  0.75450  0.03195  0.33603  1.0000
  C   C403      1.0  0.77488  0.04488  0.38272  1.0000
  C   C404      1.0  0.78599  0.06849  0.38099  1.0000
  H   H272      1.0  0.78170  0.03719  0.41936  1.0000
  H   H273      1.0  0.80070  0.07728  0.41569  1.0000
  C   C405      1.0  0.74347  0.00812  0.34284  1.0000
  C   C406      1.0  0.71870  0.96007  0.34099  1.0000
  C   C407      1.0  0.71767  0.97241  0.41487  1.0000
  C   C408      1.0  0.72971  0.99622  0.41722  1.0000
  H   H274      1.0  0.70711  0.96392  0.46683  1.0000
  N   N48       1.0  0.72719  0.00678  0.48955  1.0000
  H   H275      1.0  0.73483  0.02305  0.49412  1.0000
  H   H276      1.0  0.71762  0.99832  0.53958  1.0000
