data_image0
_chemical_formula_structural       NCHNCHNCHNCHNCHNCHC2NC2O2HC2NC2O2HC2NC2O2HC2NC2O2HC2NC2O2HC2NC2O2HC2NC2O2HC2NC2O2HC2NC2O2HC2NC2O2HC2NC2O2HC2NC2O2HNC18H12NC18H12NC18H12NC18H12NC18H12NC18H12NC18H12NC18H12NC18H12NC18H12NC18H12NC18H12C2NC2O2HC2NC2O2HC2NC2O2HC2NC2O2HC2NC2O2HC2NC2O2HNCHNCHNCHNCHNCHNCHNCHNCHNCHNCHNCHNCH
_chemical_formula_sum              "N48 C306 H180 O36"
_cell_length_a       63.6315
_cell_length_b       63.6315
_cell_length_c       14.6677
_cell_angle_alpha    90
_cell_angle_beta     90
_cell_angle_gamma    120

_space_group_name_H-M_alt    "P 1"
_space_group_IT_number       1

loop_
  _space_group_symop_operation_xyz
  'x, y, z'

loop_
  _atom_site_type_symbol
  _atom_site_label
  _atom_site_symmetry_multiplicity
  _atom_site_fract_x
  _atom_site_fract_y
  _atom_site_fract_z
  _atom_site_occupancy
  N   N1        1.0  0.21759  0.40746  0.28298  1.0000
  C   C1        1.0  0.20562  0.38292  0.27381  1.0000
  H   H1        1.0  0.20383  0.37595  0.20986  1.0000
  N   N2        1.0  0.60811  0.80305  0.28298  1.0000
  C   C2        1.0  0.63266  0.81562  0.27381  1.0000
  H   H2        1.0  0.63963  0.82082  0.20988  1.0000
  N   N3        1.0  0.21253  0.79801  0.28296  1.0000
  C   C3        1.0  0.19995  0.80998  0.27379  1.0000
  H   H3        1.0  0.19478  0.81178  0.20985  1.0000
  N   N4        1.0  0.80788  0.59820  0.28300  1.0000
  C   C4        1.0  0.81985  0.62274  0.27382  1.0000
  H   H4        1.0  0.82163  0.62971  0.20988  1.0000
  N   N5        1.0  0.41739  0.20261  0.28295  1.0000
  C   C5        1.0  0.39284  0.19004  0.27378  1.0000
  H   H5        1.0  0.38587  0.18484  0.20985  1.0000
  N   N6        1.0  0.81294  0.20766  0.28296  1.0000
  C   C6        1.0  0.82551  0.19569  0.27380  1.0000
  H   H6        1.0  0.83069  0.19390  0.20985  1.0000
  C   C7        1.0  0.19543  0.21164  0.34744  1.0000
  C   C8        1.0  0.22080  0.18534  0.36017  1.0000
  N   N7        1.0  0.21867  0.19542  0.28120  1.0000
  C   C9        1.0  0.20675  0.20808  0.26993  1.0000
  C   C10       1.0  0.20818  0.21832  0.18504  1.0000
  O   O1        1.0  0.20527  0.20578  0.11780  1.0000
  O   O2        1.0  0.22075  0.24041  0.17217  1.0000
  H   H7        1.0  0.22599  0.25158  0.21559  1.0000
  C   C11       1.0  0.80393  0.97671  0.34746  1.0000
  C   C12       1.0  0.83024  0.02838  0.36018  1.0000
  N   N8        1.0  0.82017  0.01617  0.28118  1.0000
  C   C13       1.0  0.80753  0.99160  0.26992  1.0000
  C   C14       1.0  0.79730  0.98284  0.18495  1.0000
  O   O3        1.0  0.80982  0.99227  0.11754  1.0000
  O   O4        1.0  0.77516  0.97313  0.17262  1.0000
  H   H8        1.0  0.76405  0.96727  0.21627  1.0000
  C   C15       1.0  0.03887  0.82014  0.34747  1.0000
  C   C16       1.0  0.98719  0.79478  0.36018  1.0000
  N   N9        1.0  0.99940  0.79690  0.28120  1.0000
  C   C17       1.0  0.02397  0.80880  0.26996  1.0000
  C   C18       1.0  0.03275  0.80738  0.18501  1.0000
  O   O5        1.0  0.02315  0.81012  0.11733  1.0000
  O   O6        1.0  0.04261  0.79510  0.17243  1.0000
  H   H9        1.0  0.04860  0.78995  0.21598  1.0000
  C   C19       1.0  0.83005  0.79401  0.34748  1.0000
  C   C20       1.0  0.80469  0.82033  0.36019  1.0000
  N   N10       1.0  0.80683  0.81025  0.28120  1.0000
  C   C21       1.0  0.81874  0.79760  0.26996  1.0000
  C   C22       1.0  0.81729  0.78738  0.18498  1.0000
  O   O7        1.0  0.82037  0.79990  0.11758  1.0000
  O   O8        1.0  0.80487  0.76524  0.17262  1.0000
  H   H10       1.0  0.79962  0.75413  0.21626  1.0000
  C   C23       1.0  0.22157  0.02897  0.34746  1.0000
  C   C24       1.0  0.19525  0.97730  0.36017  1.0000
  N   N11       1.0  0.20532  0.98951  0.28118  1.0000
  C   C25       1.0  0.21798  0.01408  0.26993  1.0000
  C   C26       1.0  0.22820  0.02284  0.18500  1.0000
  O   O9        1.0  0.21587  0.01326  0.11729  1.0000
  O   O10       1.0  0.25034  0.03268  0.17247  1.0000
  H   H11       1.0  0.26147  0.03865  0.21605  1.0000
  C   C27       1.0  0.98661  0.18553  0.34747  1.0000
  C   C28       1.0  0.03829  0.21089  0.36019  1.0000
  N   N12       1.0  0.02608  0.20877  0.28121  1.0000
  C   C29       1.0  0.00151  0.19687  0.26996  1.0000
  C   C30       1.0  0.99273  0.19829  0.18501  1.0000
  O   O11       1.0  0.00233  0.19555  0.11733  1.0000
  O   O12       1.0  0.98287  0.21057  0.17243  1.0000
  H   H12       1.0  0.97689  0.21572  0.21597  1.0000
  C   C31       1.0  0.25139  0.64424  0.34372  1.0000
  C   C32       1.0  0.25249  0.60036  0.35986  1.0000
  N   N13       1.0  0.24276  0.60558  0.28659  1.0000
  C   C33       1.0  0.24166  0.62623  0.27430  1.0000
  C   C34       1.0  0.23004  0.62767  0.19659  1.0000
  O   O13       1.0  0.23455  0.62136  0.12395  1.0000
  O   O14       1.0  0.21047  0.62733  0.20034  1.0000
  H   H13       1.0  0.20415  0.62972  0.25039  1.0000
  C   C35       1.0  0.37134  0.60004  0.34374  1.0000
  C   C36       1.0  0.41522  0.64503  0.35982  1.0000
  N   N14       1.0  0.41001  0.63006  0.28662  1.0000
  C   C37       1.0  0.38937  0.60830  0.27437  1.0000
  C   C38       1.0  0.38791  0.59523  0.19670  1.0000
  O   O15       1.0  0.39449  0.60603  0.12407  1.0000
  O   O16       1.0  0.38815  0.57595  0.20028  1.0000
  H   H14       1.0  0.38564  0.56717  0.25022  1.0000
  C   C39       1.0  0.41548  0.76414  0.34370  1.0000
  C   C40       1.0  0.37050  0.76306  0.35980  1.0000
  N   N15       1.0  0.38547  0.77281  0.28659  1.0000
  C   C41       1.0  0.40722  0.77391  0.27430  1.0000
  C   C42       1.0  0.42033  0.78552  0.19670  1.0000
  O   O17       1.0  0.40939  0.78114  0.12431  1.0000
  O   O18       1.0  0.43938  0.80524  0.20025  1.0000
  H   H15       1.0  0.44816  0.81157  0.25015  1.0000
  C   C43       1.0  0.77410  0.36142  0.34369  1.0000
  C   C44       1.0  0.77300  0.40530  0.35976  1.0000
  N   N16       1.0  0.78274  0.40008  0.28654  1.0000
  C   C45       1.0  0.78385  0.37944  0.27428  1.0000
  C   C46       1.0  0.79549  0.37800  0.19662  1.0000
  O   O19       1.0  0.79100  0.38432  0.12395  1.0000
  O   O20       1.0  0.81504  0.37832  0.20044  1.0000
  H   H16       1.0  0.82135  0.37592  0.25052  1.0000
  C   C47       1.0  0.65411  0.40561  0.34387  1.0000
  C   C48       1.0  0.61024  0.36061  0.35985  1.0000
  N   N17       1.0  0.61545  0.37559  0.28668  1.0000
  C   C49       1.0  0.63609  0.39735  0.27447  1.0000
  C   C50       1.0  0.63755  0.41042  0.19681  1.0000
  O   O21       1.0  0.63097  0.39963  0.12418  1.0000
  O   O22       1.0  0.63733  0.42972  0.20041  1.0000
  H   H17       1.0  0.63984  0.43849  0.25037  1.0000
  C   C51       1.0  0.60997  0.24144  0.34380  1.0000
  C   C52       1.0  0.65496  0.24255  0.35987  1.0000
  N   N18       1.0  0.63999  0.23279  0.28666  1.0000
  C   C53       1.0  0.61823  0.23168  0.27441  1.0000
  C   C54       1.0  0.60516  0.22006  0.19672  1.0000
  O   O23       1.0  0.61599  0.22455  0.12407  1.0000
  O   O24       1.0  0.58592  0.20050  0.20050  1.0000
  H   H18       1.0  0.57722  0.19419  0.25057  1.0000
  N   N19       1.0  0.14288  0.26337  0.35659  1.0000
  C   C55       1.0  0.11700  0.25053  0.35834  1.0000
  C   C56       1.0  0.15587  0.28925  0.35454  1.0000
  C   C57       1.0  0.15576  0.25035  0.35438  1.0000
  C   C58       1.0  0.15361  0.23551  0.27937  1.0000
  C   C59       1.0  0.16637  0.22268  0.27713  1.0000
  C   C60       1.0  0.18214  0.22449  0.34891  1.0000
  C   C61       1.0  0.18382  0.23914  0.42461  1.0000
  C   C62       1.0  0.17093  0.25186  0.42728  1.0000
  C   C63       1.0  0.10351  0.25093  0.28274  1.0000
  C   C64       1.0  0.07791  0.23802  0.28415  1.0000
  C   C65       1.0  0.06455  0.22413  0.36100  1.0000
  C   C66       1.0  0.07850  0.22392  0.43636  1.0000
  C   C67       1.0  0.10411  0.23683  0.43519  1.0000
  C   C68       1.0  0.16903  0.30204  0.27660  1.0000
  C   C69       1.0  0.18198  0.32765  0.27506  1.0000
  C   C70       1.0  0.18235  0.34167  0.35112  1.0000
  C   C71       1.0  0.16904  0.32842  0.42911  1.0000
  C   C72       1.0  0.15608  0.30282  0.43087  1.0000
  H   H19       1.0  0.06911  0.23904  0.22742  1.0000
  H   H20       1.0  0.11235  0.26061  0.22581  1.0000
  H   H21       1.0  0.11343  0.23611  0.49085  1.0000
  H   H22       1.0  0.07028  0.21402  0.49341  1.0000
  H   H23       1.0  0.14250  0.23383  0.22607  1.0000
  H   H24       1.0  0.16356  0.21154  0.22273  1.0000
  H   H25       1.0  0.16931  0.29266  0.22037  1.0000
  H   H26       1.0  0.19151  0.33582  0.21724  1.0000
  H   H27       1.0  0.16845  0.33730  0.48635  1.0000
  H   H28       1.0  0.14678  0.29405  0.48851  1.0000
  H   H29       1.0  0.17275  0.26238  0.48275  1.0000
  H   H30       1.0  0.19487  0.24105  0.47846  1.0000
  N   N20       1.0  0.75221  0.87243  0.35660  1.0000
  C   C73       1.0  0.76504  0.85939  0.35834  1.0000
  C   C74       1.0  0.72632  0.85955  0.35455  1.0000
  C   C75       1.0  0.76522  0.89832  0.35439  1.0000
  C   C76       1.0  0.78006  0.91102  0.27939  1.0000
  C   C77       1.0  0.79288  0.93661  0.27715  1.0000
  C   C78       1.0  0.79107  0.95057  0.34892  1.0000
  C   C79       1.0  0.77643  0.93760  0.42465  1.0000
  C   C80       1.0  0.76372  0.91200  0.42731  1.0000
  C   C81       1.0  0.76465  0.84551  0.28274  1.0000
  C   C82       1.0  0.77756  0.83282  0.28415  1.0000
  C   C83       1.0  0.79145  0.83335  0.36100  1.0000
  C   C84       1.0  0.79165  0.84750  0.43637  1.0000
  C   C85       1.0  0.77874  0.86020  0.43521  1.0000
  C   C86       1.0  0.71354  0.85992  0.27660  1.0000
  C   C87       1.0  0.68793  0.84726  0.27506  1.0000
  C   C88       1.0  0.67390  0.83360  0.35113  1.0000
  C   C89       1.0  0.68715  0.83355  0.42911  1.0000
  C   C90       1.0  0.71275  0.84618  0.43088  1.0000
  H   H31       1.0  0.77655  0.82301  0.22741  1.0000
  H   H32       1.0  0.75497  0.84467  0.22580  1.0000
  H   H33       1.0  0.77946  0.87023  0.49087  1.0000
  H   H34       1.0  0.80156  0.84918  0.49343  1.0000
  H   H35       1.0  0.78174  0.90160  0.22606  1.0000
  H   H36       1.0  0.80402  0.94495  0.22273  1.0000
  H   H37       1.0  0.72291  0.86957  0.22037  1.0000
  H   H38       1.0  0.67975  0.84861  0.21725  1.0000
  H   H39       1.0  0.67828  0.82408  0.48635  1.0000
  H   H40       1.0  0.72153  0.84566  0.48852  1.0000
  H   H41       1.0  0.75320  0.90329  0.48279  1.0000
  H   H42       1.0  0.77452  0.94674  0.47850  1.0000
  N   N21       1.0  0.14314  0.87271  0.35660  1.0000
  C   C91       1.0  0.15619  0.89859  0.35834  1.0000
  C   C92       1.0  0.15603  0.85971  0.35455  1.0000
  C   C93       1.0  0.11725  0.85983  0.35440  1.0000
  C   C94       1.0  0.10455  0.86198  0.27940  1.0000
  C   C95       1.0  0.07896  0.84921  0.27719  1.0000
  C   C96       1.0  0.06500  0.83343  0.34894  1.0000
  C   C97       1.0  0.07798  0.83177  0.42466  1.0000
  C   C98       1.0  0.10358  0.84466  0.42732  1.0000
  C   C99       1.0  0.17007  0.91208  0.28273  1.0000
  C   C100      1.0  0.18276  0.93768  0.28415  1.0000
  C   C101      1.0  0.18223  0.95104  0.36099  1.0000
  C   C102      1.0  0.16807  0.93708  0.43637  1.0000
  C   C103      1.0  0.15538  0.91147  0.43521  1.0000
  C   C104      1.0  0.15565  0.84655  0.27660  1.0000
  C   C105      1.0  0.16831  0.83360  0.27506  1.0000
  C   C106      1.0  0.18197  0.83324  0.35112  1.0000
  C   C107      1.0  0.18203  0.84655  0.42910  1.0000
  C   C108      1.0  0.16940  0.85951  0.43086  1.0000
  H   H43       1.0  0.19257  0.94648  0.22740  1.0000
  H   H44       1.0  0.17091  0.90324  0.22580  1.0000
  H   H45       1.0  0.14534  0.90216  0.49087  1.0000
  H   H46       1.0  0.16639  0.94531  0.49342  1.0000
  H   H47       1.0  0.11397  0.87307  0.22607  1.0000
  H   H48       1.0  0.07062  0.85200  0.22274  1.0000
  H   H49       1.0  0.14600  0.84627  0.22038  1.0000
  H   H50       1.0  0.16696  0.82407  0.21725  1.0000
  H   H51       1.0  0.19150  0.84714  0.48633  1.0000
  H   H52       1.0  0.16992  0.86881  0.48851  1.0000
  H   H53       1.0  0.11228  0.84284  0.48279  1.0000
  H   H54       1.0  0.06884  0.82071  0.47850  1.0000
  N   N22       1.0  0.88260  0.74229  0.35659  1.0000
  C   C109      1.0  0.90848  0.75513  0.35834  1.0000
  C   C110      1.0  0.86960  0.71641  0.35455  1.0000
  C   C111      1.0  0.86972  0.75531  0.35440  1.0000
  C   C112      1.0  0.87187  0.77015  0.27940  1.0000
  C   C113      1.0  0.85911  0.78298  0.27717  1.0000
  C   C114      1.0  0.84334  0.78116  0.34894  1.0000
  C   C115      1.0  0.84167  0.76653  0.42467  1.0000
  C   C116      1.0  0.85456  0.75381  0.42732  1.0000
  C   C117      1.0  0.92197  0.75473  0.28274  1.0000
  C   C118      1.0  0.94757  0.76765  0.28415  1.0000
  C   C119      1.0  0.96093  0.78154  0.36100  1.0000
  C   C120      1.0  0.94698  0.78174  0.43636  1.0000
  C   C121      1.0  0.92136  0.76882  0.43520  1.0000
  C   C122      1.0  0.85644  0.70362  0.27661  1.0000
  C   C123      1.0  0.84350  0.67801  0.27507  1.0000
  C   C124      1.0  0.84313  0.66398  0.35112  1.0000
  C   C125      1.0  0.85644  0.67724  0.42911  1.0000
  C   C126      1.0  0.86940  0.70283  0.43086  1.0000
  H   H55       1.0  0.95637  0.76663  0.22741  1.0000
  H   H56       1.0  0.91314  0.74505  0.22580  1.0000
  H   H57       1.0  0.91205  0.76955  0.49086  1.0000
  H   H58       1.0  0.95520  0.79165  0.49342  1.0000
  H   H59       1.0  0.88296  0.77182  0.22605  1.0000
  H   H60       1.0  0.86190  0.79410  0.22273  1.0000
  H   H61       1.0  0.85616  0.71300  0.22039  1.0000
  H   H62       1.0  0.83397  0.66984  0.21725  1.0000
  H   H63       1.0  0.85703  0.66836  0.48634  1.0000
  H   H64       1.0  0.87871  0.71161  0.48851  1.0000
  H   H65       1.0  0.85274  0.74329  0.48279  1.0000
  H   H66       1.0  0.83062  0.76460  0.47851  1.0000
  N   N23       1.0  0.27330  0.13325  0.35659  1.0000
  C   C127      1.0  0.26046  0.14630  0.35834  1.0000
  C   C128      1.0  0.29918  0.14613  0.35453  1.0000
  C   C129      1.0  0.26028  0.10736  0.35439  1.0000
  C   C130      1.0  0.24544  0.09466  0.27940  1.0000
  C   C131      1.0  0.23260  0.06907  0.27717  1.0000
  C   C132      1.0  0.23442  0.05511  0.34894  1.0000
  C   C133      1.0  0.24906  0.06808  0.42465  1.0000
  C   C134      1.0  0.26178  0.09368  0.42731  1.0000
  C   C135      1.0  0.26086  0.16018  0.28274  1.0000
  C   C136      1.0  0.24794  0.17286  0.28415  1.0000
  C   C137      1.0  0.23405  0.17233  0.36100  1.0000
  C   C138      1.0  0.23385  0.15817  0.43637  1.0000
  C   C139      1.0  0.24677  0.14548  0.43521  1.0000
  C   C140      1.0  0.31197  0.14576  0.27659  1.0000
  C   C141      1.0  0.33757  0.15841  0.27505  1.0000
  C   C142      1.0  0.35160  0.17207  0.35110  1.0000
  C   C143      1.0  0.33835  0.17213  0.42909  1.0000
  C   C144      1.0  0.31276  0.15950  0.43086  1.0000
  H   H67       1.0  0.24895  0.18266  0.22740  1.0000
  H   H68       1.0  0.27053  0.16101  0.22579  1.0000
  H   H69       1.0  0.24605  0.13545  0.49087  1.0000
  H   H70       1.0  0.22395  0.15649  0.49342  1.0000
  H   H71       1.0  0.24376  0.10408  0.22606  1.0000
  H   H72       1.0  0.22148  0.06073  0.22273  1.0000
  H   H73       1.0  0.30259  0.13611  0.22036  1.0000
  H   H74       1.0  0.34575  0.15707  0.21721  1.0000
  H   H75       1.0  0.34723  0.18159  0.48633  1.0000
  H   H76       1.0  0.30398  0.16002  0.48851  1.0000
  H   H77       1.0  0.27231  0.10239  0.48277  1.0000
  H   H78       1.0  0.25099  0.05894  0.47849  1.0000
  N   N24       1.0  0.88234  0.13298  0.35659  1.0000
  C   C145      1.0  0.86929  0.10709  0.35833  1.0000
  C   C146      1.0  0.86945  0.14597  0.35454  1.0000
  C   C147      1.0  0.90823  0.14585  0.35439  1.0000
  C   C148      1.0  0.92093  0.14370  0.27939  1.0000
  C   C149      1.0  0.94652  0.15646  0.27717  1.0000
  C   C150      1.0  0.96048  0.17224  0.34894  1.0000
  C   C151      1.0  0.94750  0.17391  0.42464  1.0000
  C   C152      1.0  0.92190  0.16102  0.42731  1.0000
  C   C153      1.0  0.85541  0.09360  0.28274  1.0000
  C   C154      1.0  0.84272  0.06800  0.28415  1.0000
  C   C155      1.0  0.84326  0.05465  0.36100  1.0000
  C   C156      1.0  0.85741  0.06860  0.43637  1.0000
  C   C157      1.0  0.87011  0.09421  0.43520  1.0000
  C   C158      1.0  0.86982  0.15913  0.27659  1.0000
  C   C159      1.0  0.85716  0.17208  0.27506  1.0000
  C   C160      1.0  0.84350  0.17244  0.35112  1.0000
  C   C161      1.0  0.84345  0.15913  0.42911  1.0000
  C   C162      1.0  0.85608  0.14617  0.43086  1.0000
  H   H79       1.0  0.83291  0.05920  0.22741  1.0000
  H   H80       1.0  0.85457  0.10244  0.22579  1.0000
  H   H81       1.0  0.88014  0.10352  0.49085  1.0000
  H   H82       1.0  0.85910  0.06037  0.49342  1.0000
  H   H83       1.0  0.91151  0.13261  0.22606  1.0000
  H   H84       1.0  0.95486  0.15367  0.22274  1.0000
  H   H85       1.0  0.87947  0.15940  0.22036  1.0000
  H   H86       1.0  0.85850  0.18159  0.21723  1.0000
  H   H87       1.0  0.83398  0.15854  0.48634  1.0000
  H   H88       1.0  0.85556  0.13687  0.48851  1.0000
  H   H89       1.0  0.91320  0.16284  0.48277  1.0000
  H   H90       1.0  0.95664  0.18496  0.47849  1.0000
  N   N25       1.0  0.27351  0.52389  0.35212  1.0000
  C   C163      1.0  0.29927  0.53810  0.34595  1.0000
  C   C164      1.0  0.26072  0.49804  0.35489  1.0000
  C   C165      1.0  0.26155  0.53770  0.35780  1.0000
  C   C166      1.0  0.26149  0.54881  0.44097  1.0000
  C   C167      1.0  0.25741  0.56863  0.44277  1.0000
  C   C168      1.0  0.25356  0.57833  0.36143  1.0000
  C   C169      1.0  0.25211  0.56596  0.27906  1.0000
  C   C170      1.0  0.25611  0.54612  0.27717  1.0000
  C   C171      1.0  0.31334  0.54608  0.42627  1.0000
  C   C172      1.0  0.33737  0.56561  0.42422  1.0000
  C   C173      1.0  0.34813  0.57821  0.34217  1.0000
  C   C174      1.0  0.33400  0.56973  0.26164  1.0000
  C   C175      1.0  0.31015  0.54986  0.26325  1.0000
  C   C176      1.0  0.26369  0.48539  0.42821  1.0000
  C   C177      1.0  0.25102  0.45980  0.43071  1.0000
  C   C178      1.0  0.23442  0.44575  0.36115  1.0000
  C   C179      1.0  0.23188  0.45864  0.28705  1.0000
  C   C180      1.0  0.24474  0.48424  0.28398  1.0000
  H   H91       1.0  0.34657  0.57132  0.48467  1.0000
  H   H92       1.0  0.30559  0.53889  0.48794  1.0000
  H   H93       1.0  0.29998  0.54548  0.20504  1.0000
  H   H94       1.0  0.34016  0.57905  0.20176  1.0000
  H   H95       1.0  0.26626  0.54370  0.49998  1.0000
  H   H96       1.0  0.25835  0.57649  0.50450  1.0000
  H   H97       1.0  0.27528  0.49477  0.48031  1.0000
  H   H98       1.0  0.25447  0.45155  0.48376  1.0000
  H   H99       1.0  0.22023  0.44945  0.23471  1.0000
  H   H100      1.0  0.24229  0.49283  0.22954  1.0000
  H   H101      1.0  0.25722  0.53926  0.21546  1.0000
  H   H102      1.0  0.24987  0.57235  0.21792  1.0000
  N   N26       1.0  0.49168  0.74252  0.35194  1.0000
  C   C181      1.0  0.47747  0.75407  0.34604  1.0000
  C   C182      1.0  0.51753  0.75557  0.35481  1.0000
  C   C183      1.0  0.47788  0.71675  0.35767  1.0000
  C   C184      1.0  0.46679  0.70557  0.44087  1.0000
  C   C185      1.0  0.44695  0.68169  0.44267  1.0000
  C   C186      1.0  0.43725  0.66813  0.36136  1.0000
  C   C187      1.0  0.44963  0.67902  0.27899  1.0000
  C   C188      1.0  0.46942  0.70289  0.27706  1.0000
  C   C189      1.0  0.46947  0.76016  0.42630  1.0000
  C   C190      1.0  0.44992  0.76463  0.42424  1.0000
  C   C191      1.0  0.43732  0.76277  0.34217  1.0000
  C   C192      1.0  0.44584  0.75719  0.26161  1.0000
  C   C193      1.0  0.46566  0.75313  0.26338  1.0000
  C   C194      1.0  0.53018  0.77117  0.42821  1.0000
  C   C195      1.0  0.55576  0.78409  0.43075  1.0000
  C   C196      1.0  0.56983  0.78157  0.36115  1.0000
  C   C197      1.0  0.55694  0.76617  0.28698  1.0000
  C   C198      1.0  0.53134  0.75342  0.28386  1.0000
  H   H103      1.0  0.44420  0.76811  0.48468  1.0000
  H   H104      1.0  0.47666  0.75961  0.48798  1.0000
  H   H105      1.0  0.47011  0.74743  0.20508  1.0000
  H   H106      1.0  0.43651  0.75399  0.20173  1.0000
  H   H107      1.0  0.47187  0.71548  0.49985  1.0000
  H   H108      1.0  0.43908  0.67479  0.50440  1.0000
  H   H109      1.0  0.52079  0.77336  0.48032  1.0000
  H   H110      1.0  0.56401  0.79578  0.48384  1.0000
  H   H111      1.0  0.56614  0.76373  0.23459  1.0000
  H   H112      1.0  0.52276  0.74241  0.22937  1.0000
  H   H113      1.0  0.47633  0.71084  0.21535  1.0000
  H   H114      1.0  0.44324  0.67040  0.21785  1.0000
  N   N27       1.0  0.27303  0.74208  0.35176  1.0000
  C   C199      1.0  0.26148  0.71632  0.34594  1.0000
  C   C200      1.0  0.25998  0.75488  0.35472  1.0000
  C   C201      1.0  0.29880  0.75404  0.35770  1.0000
  C   C202      1.0  0.30998  0.75413  0.44089  1.0000
  C   C203      1.0  0.33386  0.75817  0.44269  1.0000
  C   C204      1.0  0.34741  0.76201  0.36136  1.0000
  C   C205      1.0  0.33652  0.76349  0.27898  1.0000
  C   C206      1.0  0.31265  0.75942  0.27708  1.0000
  C   C207      1.0  0.25539  0.70223  0.42622  1.0000
  C   C208      1.0  0.25089  0.67820  0.42418  1.0000
  C   C209      1.0  0.25275  0.66745  0.34215  1.0000
  C   C210      1.0  0.25840  0.68158  0.26162  1.0000
  C   C211      1.0  0.26241  0.70543  0.26330  1.0000
  C   C212      1.0  0.24438  0.75192  0.42810  1.0000
  C   C213      1.0  0.23147  0.76459  0.43069  1.0000
  C   C214      1.0  0.23399  0.78118  0.36111  1.0000
  C   C215      1.0  0.24941  0.78372  0.28696  1.0000
  C   C216      1.0  0.26215  0.77085  0.28382  1.0000
  H   H115      1.0  0.24745  0.66902  0.48466  1.0000
  H   H116      1.0  0.25596  0.70998  0.48789  1.0000
  H   H117      1.0  0.26811  0.71558  0.20498  1.0000
  H   H118      1.0  0.26153  0.67542  0.20169  1.0000
  H   H119      1.0  0.30008  0.74931  0.49988  1.0000
  H   H120      1.0  0.34077  0.75720  0.50441  1.0000
  H   H121      1.0  0.24218  0.74032  0.48018  1.0000
  H   H122      1.0  0.21976  0.76112  0.48374  1.0000
  H   H123      1.0  0.25185  0.79536  0.23461  1.0000
  H   H124      1.0  0.27317  0.77330  0.22933  1.0000
  H   H125      1.0  0.30471  0.75839  0.21536  1.0000
  H   H126      1.0  0.34514  0.76572  0.21786  1.0000
  N   N28       1.0  0.75197  0.48177  0.35191  1.0000
  C   C217      1.0  0.72621  0.46755  0.34606  1.0000
  C   C218      1.0  0.76477  0.50762  0.35479  1.0000
  C   C219      1.0  0.76393  0.46796  0.35764  1.0000
  C   C220      1.0  0.76399  0.45684  0.44081  1.0000
  C   C221      1.0  0.76809  0.43704  0.44265  1.0000
  C   C222      1.0  0.77194  0.42734  0.36132  1.0000
  C   C223      1.0  0.77338  0.43969  0.27893  1.0000
  C   C224      1.0  0.76934  0.45951  0.27703  1.0000
  C   C225      1.0  0.71212  0.45957  0.42634  1.0000
  C   C226      1.0  0.68810  0.44002  0.42433  1.0000
  C   C227      1.0  0.67734  0.42742  0.34230  1.0000
  C   C228      1.0  0.69146  0.43590  0.26174  1.0000
  C   C229      1.0  0.71532  0.45574  0.26342  1.0000
  C   C230      1.0  0.76182  0.52026  0.42819  1.0000
  C   C231      1.0  0.77450  0.54585  0.43076  1.0000
  C   C232      1.0  0.79107  0.55991  0.36114  1.0000
  C   C233      1.0  0.79359  0.54702  0.28697  1.0000
  C   C234      1.0  0.78073  0.52142  0.28385  1.0000
  H   H127      1.0  0.67890  0.43432  0.48478  1.0000
  H   H128      1.0  0.71987  0.46676  0.48801  1.0000
  H   H129      1.0  0.72547  0.46019  0.20510  1.0000
  H   H130      1.0  0.68529  0.42661  0.20181  1.0000
  H   H131      1.0  0.75925  0.46198  0.49985  1.0000
  H   H132      1.0  0.76715  0.42918  0.50438  1.0000
  H   H133      1.0  0.75024  0.51087  0.48030  1.0000
  H   H134      1.0  0.77104  0.55409  0.48382  1.0000
  H   H135      1.0  0.80522  0.55622  0.23458  1.0000
  H   H136      1.0  0.78316  0.51284  0.22935  1.0000
  H   H137      1.0  0.76826  0.46638  0.21528  1.0000
  H   H138      1.0  0.77560  0.43329  0.21780  1.0000
  N   N29       1.0  0.53382  0.26312  0.35187  1.0000
  C   C235      1.0  0.54804  0.25157  0.34603  1.0000
  C   C236      1.0  0.50797  0.25007  0.35477  1.0000
  C   C237      1.0  0.54763  0.28890  0.35762  1.0000
  C   C238      1.0  0.55871  0.30004  0.44086  1.0000
  C   C239      1.0  0.57852  0.32394  0.44269  1.0000
  C   C240      1.0  0.58821  0.33750  0.36137  1.0000
  C   C241      1.0  0.57586  0.32661  0.27896  1.0000
  C   C242      1.0  0.55606  0.30274  0.27699  1.0000
  C   C243      1.0  0.55600  0.24547  0.42634  1.0000
  C   C244      1.0  0.57554  0.24098  0.42429  1.0000
  C   C245      1.0  0.58813  0.24281  0.34223  1.0000
  C   C246      1.0  0.57966  0.24846  0.26169  1.0000
  C   C247      1.0  0.55982  0.25249  0.26334  1.0000
  C   C248      1.0  0.49533  0.23449  0.42819  1.0000
  C   C249      1.0  0.46974  0.22158  0.43076  1.0000
  C   C250      1.0  0.45568  0.22408  0.36111  1.0000
  C   C251      1.0  0.46856  0.23948  0.28692  1.0000
  C   C252      1.0  0.49417  0.25222  0.28381  1.0000
  H   H139      1.0  0.58125  0.23749  0.48474  1.0000
  H   H140      1.0  0.54881  0.24603  0.48800  1.0000
  H   H141      1.0  0.55537  0.25819  0.20503  1.0000
  H   H142      1.0  0.58895  0.25158  0.20176  1.0000
  H   H143      1.0  0.55356  0.29015  0.49988  1.0000
  H   H144      1.0  0.58635  0.33087  0.50445  1.0000
  H   H145      1.0  0.50471  0.23230  0.48031  1.0000
  H   H146      1.0  0.46150  0.20989  0.48382  1.0000
  H   H147      1.0  0.45937  0.24191  0.23453  1.0000
  H   H148      1.0  0.50274  0.26322  0.22929  1.0000
  H   H149      1.0  0.54919  0.29479  0.21524  1.0000
  H   H150      1.0  0.58227  0.33522  0.21783  1.0000
  N   N30       1.0  0.75243  0.26359  0.35194  1.0000
  C   C253      1.0  0.76398  0.28935  0.34583  1.0000
  C   C254      1.0  0.76548  0.25079  0.35479  1.0000
  C   C255      1.0  0.72666  0.25162  0.35781  1.0000
  C   C256      1.0  0.71550  0.25154  0.44102  1.0000
  C   C257      1.0  0.69160  0.24746  0.44280  1.0000
  C   C258      1.0  0.67805  0.24360  0.36145  1.0000
  C   C259      1.0  0.68896  0.24214  0.27905  1.0000
  C   C260      1.0  0.71283  0.24623  0.27713  1.0000
  C   C261      1.0  0.77007  0.30342  0.42617  1.0000
  C   C262      1.0  0.77456  0.32744  0.42415  1.0000
  C   C263      1.0  0.77271  0.33820  0.34210  1.0000
  C   C264      1.0  0.76709  0.32409  0.26154  1.0000
  C   C265      1.0  0.76309  0.30024  0.26316  1.0000
  C   C266      1.0  0.78111  0.25377  0.42811  1.0000
  C   C267      1.0  0.79402  0.24109  0.43067  1.0000
  C   C268      1.0  0.79147  0.22448  0.36113  1.0000
  C   C269      1.0  0.77604  0.22194  0.28702  1.0000
  C   C270      1.0  0.76330  0.23480  0.28392  1.0000
  H   H151      1.0  0.77800  0.33661  0.48463  1.0000
  H   H152      1.0  0.76947  0.29564  0.48783  1.0000
  H   H153      1.0  0.75736  0.29007  0.20490  1.0000
  H   H154      1.0  0.76397  0.33026  0.20161  1.0000
  H   H155      1.0  0.72538  0.25628  0.50005  1.0000
  H   H156      1.0  0.68466  0.24836  0.50454  1.0000
  H   H157      1.0  0.78333  0.26537  0.48018  1.0000
  H   H158      1.0  0.80574  0.24456  0.48367  1.0000
  H   H159      1.0  0.77358  0.21028  0.23469  1.0000
  H   H160      1.0  0.75226  0.23235  0.22948  1.0000
  H   H161      1.0  0.72079  0.24733  0.21540  1.0000
  H   H162      1.0  0.68037  0.23998  0.21790  1.0000
  C   C271      1.0  0.22113  0.41961  0.36321  1.0000
  C   C272      1.0  0.19561  0.36792  0.35145  1.0000
  N   N31       1.0  0.19889  0.38023  0.43108  1.0000
  C   C273      1.0  0.21094  0.40481  0.44189  1.0000
  C   C274      1.0  0.21077  0.41368  0.52809  1.0000
  O   O25       1.0  0.21460  0.40424  0.59378  1.0000
  O   O26       1.0  0.19874  0.42358  0.54514  1.0000
  H   H163      1.0  0.19291  0.42947  0.50375  1.0000
  C   C275      1.0  0.59596  0.79444  0.36320  1.0000
  C   C276      1.0  0.64765  0.82061  0.35145  1.0000
  N   N32       1.0  0.63534  0.81158  0.43109  1.0000
  C   C277      1.0  0.61076  0.79906  0.44189  1.0000
  C   C278      1.0  0.60190  0.79000  0.52812  1.0000
  O   O27       1.0  0.61118  0.80344  0.59348  1.0000
  O   O28       1.0  0.59214  0.76806  0.54492  1.0000
  H   H164      1.0  0.58637  0.75637  0.50345  1.0000
  C   C279      1.0  0.22112  0.79445  0.36319  1.0000
  C   C280      1.0  0.19496  0.81998  0.35144  1.0000
  N   N33       1.0  0.20398  0.81668  0.43108  1.0000
  C   C281      1.0  0.21649  0.80460  0.44190  1.0000
  C   C282      1.0  0.22554  0.80481  0.52808  1.0000
  O   O29       1.0  0.21228  0.80097  0.59379  1.0000
  O   O30       1.0  0.24749  0.81688  0.54507  1.0000
  H   H165      1.0  0.25919  0.82271  0.50365  1.0000
  C   C283      1.0  0.80435  0.58605  0.36321  1.0000
  C   C284      1.0  0.82988  0.63773  0.35145  1.0000
  N   N34       1.0  0.82661  0.62542  0.43108  1.0000
  C   C285      1.0  0.81455  0.60084  0.44188  1.0000
  C   C286      1.0  0.81474  0.59198  0.52807  1.0000
  O   O31       1.0  0.81091  0.60141  0.59378  1.0000
  O   O32       1.0  0.82678  0.58208  0.54507  1.0000
  H   H166      1.0  0.83260  0.57620  0.50367  1.0000
  C   C287      1.0  0.42954  0.21122  0.36317  1.0000
  C   C288      1.0  0.37785  0.18506  0.35142  1.0000
  N   N35       1.0  0.39016  0.19409  0.43106  1.0000
  C   C289      1.0  0.41475  0.20660  0.44187  1.0000
  C   C290      1.0  0.42360  0.21568  0.52807  1.0000
  O   O33       1.0  0.41433  0.20225  0.59347  1.0000
  O   O34       1.0  0.43336  0.23762  0.54481  1.0000
  H   H167      1.0  0.43912  0.24931  0.50330  1.0000
  C   C291      1.0  0.80434  0.21121  0.36319  1.0000
  C   C292      1.0  0.83050  0.18569  0.35144  1.0000
  N   N36       1.0  0.82148  0.18898  0.43108  1.0000
  C   C293      1.0  0.80895  0.20103  0.44188  1.0000
  C   C294      1.0  0.79992  0.20086  0.52808  1.0000
  O   O35       1.0  0.81319  0.20470  0.59377  1.0000
  O   O36       1.0  0.77798  0.18882  0.54516  1.0000
  H   H168      1.0  0.76626  0.18299  0.50379  1.0000
  N   N37       1.0  0.19780  0.20198  0.42709  1.0000
  C   C295      1.0  0.20965  0.18930  0.43667  1.0000
  H   H169      1.0  0.21043  0.18323  0.50017  1.0000
  N   N38       1.0  0.81357  0.98874  0.42713  1.0000
  C   C296      1.0  0.82627  0.01327  0.43669  1.0000
  H   H170      1.0  0.83231  0.02013  0.50021  1.0000
  N   N39       1.0  0.02684  0.81777  0.42711  1.0000
  C   C297      1.0  0.00231  0.80593  0.43669  1.0000
  H   H171      1.0  0.99545  0.80514  0.50019  1.0000
  N   N40       1.0  0.82767  0.80367  0.42714  1.0000
  C   C298      1.0  0.81583  0.81635  0.43671  1.0000
  H   H172      1.0  0.81504  0.82242  0.50021  1.0000
  N   N41       1.0  0.21192  0.01694  0.42713  1.0000
  C   C299      1.0  0.19923  0.99241  0.43669  1.0000
  H   H173      1.0  0.19318  0.98555  0.50021  1.0000
  N   N42       1.0  0.99864  0.18790  0.42711  1.0000
  C   C300      1.0  0.02317  0.19974  0.43669  1.0000
  H   H174      1.0  0.03003  0.20053  0.50019  1.0000
  N   N43       1.0  0.26130  0.63916  0.41689  1.0000
  C   C301      1.0  0.26220  0.61847  0.42806  1.0000
  H   H175      1.0  0.27069  0.61694  0.48453  1.0000
  N   N44       1.0  0.37641  0.61505  0.41684  1.0000
  C   C302      1.0  0.39712  0.63663  0.42804  1.0000
  H   H176      1.0  0.39861  0.64669  0.48435  1.0000
  N   N45       1.0  0.40048  0.75423  0.41683  1.0000
  C   C303      1.0  0.37889  0.75334  0.42800  1.0000
  H   H177      1.0  0.36886  0.74483  0.48444  1.0000
  N   N46       1.0  0.76418  0.36650  0.41681  1.0000
  C   C304      1.0  0.76331  0.38720  0.42801  1.0000
  H   H178      1.0  0.75475  0.38871  0.48436  1.0000
  N   N47       1.0  0.64904  0.39059  0.41694  1.0000
  C   C305      1.0  0.62834  0.36900  0.42809  1.0000
  H   H179      1.0  0.62684  0.35895  0.48442  1.0000
  N   N48       1.0  0.62497  0.25136  0.41694  1.0000
  C   C306      1.0  0.64656  0.25225  0.42810  1.0000
  H   H180      1.0  0.65659  0.26076  0.48453  1.0000
