data_image0
_chemical_formula_structural       C4NC2NHOHC4NC2NHOHC4NC2NHOHC4NC2NHOHC4NC2NHOHC4NC2NHOHC2H2OC2H2OC2H2OC2H2OC2H2OC2H2OC2H2OC2H2OC2H2OC2H2OC2H2OC2H2OC4NC2NHOHC4NC2NHOHC4NC2NHOHC4NC2NHOHC4NC2NHOHC4NC2NHOHC2H2OC2H2OC2H2OC2H2OC2H2OC2H2OC2H2OC2H2OC2H2OC2H2OC2H2OC2H2OC6H3C6H3C6H3C6H3C6H3C6H3C6H3C6H3C6H3C6H3C6H3C6H3C6H3C6H3C6H3C6H3C6H3C6H3C6H3C6H3C6H3C6H3C6H3C6H3C2H2C2H2C2H2C2H2C2H2C2H2C4NC2NH2C4NC2NH2C4NC2NH2C4NC2NH2C4NC2NH2C4NC2NH2C4NC2NH2C4NC2NH2C4NC2NH2C4NC2NH2C4NC2NH2C4NC2NH2C2H2C2H2C2H2C2H2C2H2C2H2C4NC2NH2C4NC2NH2C4NC2NH2C4NC2NH2C4NC2NH2C4NC2NH2C4NC2NH2C4NC2NH2C4NC2NH2C4NC2NH2C4NC2NH2C4NC2NH2
_chemical_formula_sum              "C432 N72 H216 O36"
_cell_length_a       54.5428
_cell_length_b       54.5427
_cell_length_c       14.8617
_cell_angle_alpha    90
_cell_angle_beta     90
_cell_angle_gamma    120

_space_group_name_H-M_alt    "P 1"
_space_group_IT_number       1

loop_
  _space_group_symop_operation_xyz
  'x, y, z'

loop_
  _atom_site_type_symbol
  _atom_site_label
  _atom_site_symmetry_multiplicity
  _atom_site_fract_x
  _atom_site_fract_y
  _atom_site_fract_z
  _atom_site_occupancy
  C   C1        1.0  0.14362  0.45904  0.33403  1.0000
  C   C2        1.0  0.13923  0.44399  0.25176  1.0000
  C   C3        1.0  0.12529  0.41378  0.25306  1.0000
  C   C4        1.0  0.11567  0.39845  0.33468  1.0000
  N   N1        1.0  0.12227  0.39992  0.17409  1.0000
  C   C5        1.0  0.13158  0.41325  0.09412  1.0000
  C   C6        1.0  0.14527  0.44291  0.09208  1.0000
  N   N2        1.0  0.14877  0.45728  0.17028  1.0000
  H   H1        1.0  0.12871  0.40179  0.03681  1.0000
  O   O1        1.0  0.15489  0.45682  0.01309  1.0000
  H   H2        1.0  0.15824  0.47783  0.16643  1.0000
  C   C7        1.0  0.55258  0.68690  0.33400  1.0000
  C   C8        1.0  0.56764  0.69757  0.25174  1.0000
  C   C9        1.0  0.59785  0.71385  0.25305  1.0000
  C   C10       1.0  0.61317  0.71957  0.33469  1.0000
  N   N3        1.0  0.61171  0.72470  0.17409  1.0000
  C   C11       1.0  0.59838  0.72067  0.09411  1.0000
  C   C12       1.0  0.56872  0.70469  0.09206  1.0000
  N   N4        1.0  0.55435  0.69382  0.17026  1.0000
  H   H3        1.0  0.60985  0.72927  0.03681  1.0000
  O   O2        1.0  0.55481  0.70039  0.01306  1.0000
  H   H4        1.0  0.53380  0.68272  0.16639  1.0000
  C   C13       1.0  0.32472  0.86800  0.33402  1.0000
  C   C14       1.0  0.31404  0.87237  0.25173  1.0000
  C   C15       1.0  0.29778  0.88631  0.25303  1.0000
  C   C16       1.0  0.29206  0.89592  0.33466  1.0000
  N   N5        1.0  0.28693  0.88933  0.17406  1.0000
  C   C17       1.0  0.29096  0.88002  0.09409  1.0000
  C   C18       1.0  0.30694  0.86634  0.09205  1.0000
  N   N6        1.0  0.31780  0.86283  0.17026  1.0000
  H   H5        1.0  0.28236  0.88289  0.03678  1.0000
  O   O3        1.0  0.31123  0.85672  0.01305  1.0000
  H   H6        1.0  0.32889  0.85337  0.16639  1.0000
  C   C19       1.0  0.87028  0.55027  0.33419  1.0000
  C   C20       1.0  0.87466  0.56530  0.25186  1.0000
  C   C21       1.0  0.88862  0.59551  0.25311  1.0000
  C   C22       1.0  0.89827  0.61086  0.33470  1.0000
  N   N7        1.0  0.89164  0.60937  0.17413  1.0000
  C   C23       1.0  0.88233  0.59603  0.09417  1.0000
  C   C24       1.0  0.86863  0.56637  0.09216  1.0000
  N   N8        1.0  0.86512  0.55201  0.17039  1.0000
  H   H7        1.0  0.88520  0.60749  0.03685  1.0000
  O   O4        1.0  0.85900  0.55245  0.01318  1.0000
  H   H8        1.0  0.85565  0.53145  0.16652  1.0000
  C   C25       1.0  0.46134  0.32235  0.33419  1.0000
  C   C26       1.0  0.44632  0.31169  0.25186  1.0000
  C   C27       1.0  0.41612  0.29543  0.25313  1.0000
  C   C28       1.0  0.40077  0.28972  0.33472  1.0000
  N   N9        1.0  0.40226  0.28459  0.17414  1.0000
  C   C29       1.0  0.41560  0.28862  0.09418  1.0000
  C   C30       1.0  0.44526  0.30459  0.09217  1.0000
  N   N10       1.0  0.45962  0.31545  0.17039  1.0000
  H   H9        1.0  0.40414  0.28003  0.03686  1.0000
  O   O5        1.0  0.45918  0.30889  0.01319  1.0000
  H   H10       1.0  0.48018  0.32654  0.16654  1.0000
  C   C31       1.0  0.68927  0.14134  0.33424  1.0000
  C   C32       1.0  0.69994  0.13695  0.25194  1.0000
  C   C33       1.0  0.71621  0.12302  0.25320  1.0000
  C   C34       1.0  0.72192  0.11339  0.33480  1.0000
  N   N11       1.0  0.72705  0.12001  0.17421  1.0000
  C   C35       1.0  0.72302  0.12932  0.09426  1.0000
  C   C36       1.0  0.70704  0.14299  0.09224  1.0000
  N   N12       1.0  0.69618  0.14649  0.17047  1.0000
  H   H11       1.0  0.73162  0.12645  0.03693  1.0000
  O   O6        1.0  0.70273  0.15261  0.01326  1.0000
  H   H12       1.0  0.68508  0.15595  0.16660  1.0000
  C   C37       1.0  0.41641  0.11705  0.26705  1.0000
  C   C38       1.0  0.44620  0.13095  0.26881  1.0000
  H   H13       1.0  0.45682  0.13525  0.20883  1.0000
  H   H14       1.0  0.40631  0.11130  0.20613  1.0000
  O   O7        1.0  0.45760  0.15276  0.00388  1.0000
  C   C39       1.0  0.70992  0.59521  0.26716  1.0000
  C   C40       1.0  0.69406  0.56542  0.26899  1.0000
  H   H15       1.0  0.68774  0.55479  0.20901  1.0000
  H   H16       1.0  0.71432  0.60528  0.20620  1.0000
  O   O8        1.0  0.70446  0.55406  0.00402  1.0000
  C   C41       1.0  0.89458  0.30170  0.26715  1.0000
  C   C42       1.0  0.88066  0.31757  0.26899  1.0000
  H   H17       1.0  0.87634  0.32388  0.20901  1.0000
  H   H18       1.0  0.90025  0.29729  0.20618  1.0000
  O   O9        1.0  0.85891  0.30716  0.00404  1.0000
  C   C43       1.0  0.59753  0.89227  0.26716  1.0000
  C   C44       1.0  0.56774  0.87835  0.26901  1.0000
  H   H19       1.0  0.55710  0.87404  0.20905  1.0000
  H   H20       1.0  0.60760  0.89794  0.20619  1.0000
  O   O10       1.0  0.55641  0.85659  0.00407  1.0000
  C   C45       1.0  0.30407  0.41411  0.26724  1.0000
  C   C46       1.0  0.31995  0.44390  0.26903  1.0000
  H   H21       1.0  0.32626  0.45453  0.20907  1.0000
  H   H22       1.0  0.29966  0.40402  0.20629  1.0000
  O   O11       1.0  0.30951  0.45528  0.00411  1.0000
  C   C47       1.0  0.11934  0.70758  0.26713  1.0000
  C   C48       1.0  0.13325  0.69170  0.26887  1.0000
  H   H23       1.0  0.13757  0.68539  0.20890  1.0000
  H   H24       1.0  0.11364  0.71197  0.20618  1.0000
  O   O12       1.0  0.15511  0.70214  0.00391  1.0000
  C   C49       1.0  0.25861  0.53385  0.27076  1.0000
  C   C50       1.0  0.28440  0.53390  0.27086  1.0000
  H   H25       1.0  0.29394  0.53499  0.21044  1.0000
  H   H26       1.0  0.25013  0.53493  0.21039  1.0000
  O   O13       1.0  0.28622  0.51521  0.00592  1.0000
  C   C51       1.0  0.47777  0.72709  0.27072  1.0000
  C   C52       1.0  0.47779  0.75286  0.27082  1.0000
  H   H27       1.0  0.47664  0.76129  0.21043  1.0000
  H   H28       1.0  0.47670  0.71753  0.21037  1.0000
  O   O14       1.0  0.49640  0.77332  0.00592  1.0000
  C   C53       1.0  0.28453  0.75304  0.27082  1.0000
  C   C54       1.0  0.25880  0.72723  0.27092  1.0000
  H   H29       1.0  0.25037  0.71769  0.21049  1.0000
  H   H30       1.0  0.29412  0.76150  0.21048  1.0000
  O   O15       1.0  0.23831  0.72540  0.00600  1.0000
  C   C55       1.0  0.75532  0.47545  0.27084  1.0000
  C   C56       1.0  0.72954  0.47540  0.27097  1.0000
  H   H31       1.0  0.72000  0.47431  0.21054  1.0000
  H   H32       1.0  0.76380  0.47437  0.21045  1.0000
  O   O16       1.0  0.72773  0.49407  0.00602  1.0000
  C   C57       1.0  0.53616  0.28220  0.27086  1.0000
  C   C58       1.0  0.53622  0.25646  0.27098  1.0000
  H   H33       1.0  0.53731  0.24801  0.21056  1.0000
  H   H34       1.0  0.53722  0.29174  0.21047  1.0000
  O   O17       1.0  0.51757  0.23600  0.00607  1.0000
  C   C59       1.0  0.72941  0.25629  0.27077  1.0000
  C   C60       1.0  0.75516  0.28207  0.27086  1.0000
  H   H35       1.0  0.76360  0.29160  0.21043  1.0000
  H   H36       1.0  0.71985  0.24781  0.21041  1.0000
  O   O18       1.0  0.77566  0.28391  0.00592  1.0000
  C   C61       1.0  0.17390  0.56190  0.33402  1.0000
  C   C62       1.0  0.17628  0.57618  0.25145  1.0000
  C   C63       1.0  0.17635  0.60241  0.25266  1.0000
  C   C64       1.0  0.17396  0.61445  0.33434  1.0000
  N   N13       1.0  0.17964  0.61620  0.17338  1.0000
  C   C65       1.0  0.18257  0.60622  0.09317  1.0000
  C   C66       1.0  0.18241  0.58042  0.09119  1.0000
  N   N14       1.0  0.17941  0.56635  0.16969  1.0000
  H   H37       1.0  0.18492  0.61743  0.03562  1.0000
  O   O19       1.0  0.18536  0.56996  0.01192  1.0000
  H   H38       1.0  0.17935  0.54850  0.16588  1.0000
  C   C67       1.0  0.44972  0.61434  0.33410  1.0000
  C   C68       1.0  0.43544  0.60244  0.25149  1.0000
  C   C69       1.0  0.40922  0.57628  0.25266  1.0000
  C   C70       1.0  0.39717  0.56185  0.33434  1.0000
  N   N15       1.0  0.39543  0.56579  0.17336  1.0000
  C   C71       1.0  0.40542  0.57871  0.09317  1.0000
  C   C72       1.0  0.43122  0.60433  0.09123  1.0000
  N   N16       1.0  0.44528  0.61541  0.16975  1.0000
  H   H39       1.0  0.39422  0.56986  0.03560  1.0000
  O   O20       1.0  0.44169  0.61775  0.01197  1.0000
  H   H40       1.0  0.46313  0.63319  0.16596  1.0000
  C   C73       1.0  0.39731  0.83773  0.33405  1.0000
  C   C74       1.0  0.40921  0.83535  0.25147  1.0000
  C   C75       1.0  0.43536  0.83527  0.25270  1.0000
  C   C76       1.0  0.44978  0.83766  0.33441  1.0000
  N   N17       1.0  0.44586  0.83196  0.17342  1.0000
  C   C77       1.0  0.43295  0.82903  0.09321  1.0000
  C   C78       1.0  0.40733  0.82921  0.09122  1.0000
  N   N18       1.0  0.39624  0.83221  0.16971  1.0000
  H   H41       1.0  0.44181  0.82668  0.03566  1.0000
  O   O21       1.0  0.39392  0.82626  0.01194  1.0000
  H   H42       1.0  0.37846  0.83228  0.16588  1.0000
  C   C79       1.0  0.84006  0.44742  0.33399  1.0000
  C   C80       1.0  0.83768  0.43312  0.25143  1.0000
  C   C81       1.0  0.83759  0.40688  0.25266  1.0000
  C   C82       1.0  0.83999  0.39485  0.33437  1.0000
  N   N19       1.0  0.83429  0.39308  0.17339  1.0000
  C   C83       1.0  0.83136  0.40305  0.09317  1.0000
  C   C84       1.0  0.83154  0.42886  0.09117  1.0000
  N   N20       1.0  0.83454  0.44294  0.16967  1.0000
  H   H43       1.0  0.82901  0.39185  0.03562  1.0000
  O   O22       1.0  0.82859  0.43932  0.01189  1.0000
  H   H44       1.0  0.83462  0.46079  0.16583  1.0000
  C   C85       1.0  0.56421  0.39496  0.33399  1.0000
  C   C86       1.0  0.57848  0.40686  0.25141  1.0000
  C   C87       1.0  0.60471  0.43302  0.25260  1.0000
  C   C88       1.0  0.61676  0.44747  0.33427  1.0000
  N   N21       1.0  0.61850  0.44352  0.17331  1.0000
  C   C89       1.0  0.60853  0.43060  0.09311  1.0000
  C   C90       1.0  0.58273  0.40498  0.09115  1.0000
  N   N22       1.0  0.56866  0.39389  0.16965  1.0000
  H   H45       1.0  0.61973  0.43946  0.03556  1.0000
  O   O23       1.0  0.57227  0.39156  0.01188  1.0000
  H   H46       1.0  0.55081  0.37611  0.16584  1.0000
  C   C91       1.0  0.61665  0.17156  0.33394  1.0000
  C   C92       1.0  0.60474  0.17394  0.25139  1.0000
  C   C93       1.0  0.57858  0.17402  0.25261  1.0000
  C   C94       1.0  0.56415  0.17162  0.33428  1.0000
  N   N23       1.0  0.56809  0.17731  0.17333  1.0000
  C   C95       1.0  0.58099  0.18025  0.09311  1.0000
  C   C96       1.0  0.60662  0.18008  0.09113  1.0000
  N   N24       1.0  0.61770  0.17708  0.16963  1.0000
  H   H47       1.0  0.57214  0.18260  0.03556  1.0000
  O   O24       1.0  0.62003  0.18303  0.01186  1.0000
  H   H48       1.0  0.63549  0.17701  0.16581  1.0000
  C   C97       1.0  0.02202  0.28982  0.26500  1.0000
  C   C98       1.0  0.99211  0.27488  0.26500  1.0000
  H   H49       1.0  0.98182  0.26960  0.20436  1.0000
  H   H50       1.0  0.03237  0.29487  0.20447  1.0000
  O   O25       1.0  0.97925  0.27928  0.00131  1.0000
  C   C99       1.0  0.72180  0.73450  0.26494  1.0000
  C   C100      1.0  0.73676  0.71955  0.26498  1.0000
  H   H51       1.0  0.74204  0.71454  0.20435  1.0000
  H   H52       1.0  0.71675  0.73979  0.20439  1.0000
  O   O26       1.0  0.73234  0.70232  0.00131  1.0000
  C   C101      1.0  0.27712  0.98963  0.26494  1.0000
  C   C102      1.0  0.29205  0.01954  0.26498  1.0000
  H   H53       1.0  0.29706  0.02985  0.20437  1.0000
  H   H54       1.0  0.27180  0.97929  0.20440  1.0000
  O   O27       1.0  0.30929  0.03235  0.00135  1.0000
  C   C103      1.0  0.99194  0.71951  0.26494  1.0000
  C   C104      1.0  0.02185  0.73447  0.26494  1.0000
  H   H55       1.0  0.03215  0.73977  0.20432  1.0000
  H   H56       1.0  0.98159  0.71448  0.20441  1.0000
  O   O28       1.0  0.03470  0.73004  0.00129  1.0000
  C   C105      1.0  0.29211  0.27476  0.26486  1.0000
  C   C106      1.0  0.27715  0.28971  0.26490  1.0000
  H   H57       1.0  0.27186  0.29472  0.20428  1.0000
  H   H58       1.0  0.29713  0.26944  0.20431  1.0000
  O   O29       1.0  0.28164  0.30699  0.00125  1.0000
  C   C107      1.0  0.73691  0.01970  0.26490  1.0000
  C   C108      1.0  0.72191  0.98979  0.26492  1.0000
  H   H59       1.0  0.71695  0.97949  0.20431  1.0000
  H   H60       1.0  0.74223  0.03005  0.20438  1.0000
  O   O30       1.0  0.70464  0.97696  0.00127  1.0000
  C   C109      1.0  0.15193  0.32021  0.26680  1.0000
  C   C110      1.0  0.17780  0.32014  0.26718  1.0000
  H   H61       1.0  0.18654  0.31973  0.20663  1.0000
  H   H62       1.0  0.14284  0.31981  0.20611  1.0000
  O   O31       1.0  0.19740  0.33782  0.00167  1.0000
  C   C111      1.0  0.69139  0.83402  0.26692  1.0000
  C   C112      1.0  0.69144  0.85995  0.26727  1.0000
  H   H63       1.0  0.69180  0.86907  0.20668  1.0000
  H   H64       1.0  0.69171  0.82531  0.20620  1.0000
  O   O32       1.0  0.67383  0.86194  0.00170  1.0000
  C   C113      1.0  0.17763  0.85970  0.26697  1.0000
  C   C114      1.0  0.15169  0.83382  0.26734  1.0000
  H   H65       1.0  0.14258  0.82505  0.20675  1.0000
  H   H66       1.0  0.18633  0.86872  0.20624  1.0000
  O   O33       1.0  0.14972  0.81426  0.00179  1.0000
  C   C115      1.0  0.86203  0.68909  0.26685  1.0000
  C   C116      1.0  0.83615  0.68914  0.26721  1.0000
  H   H67       1.0  0.82738  0.68950  0.20664  1.0000
  H   H68       1.0  0.87107  0.68943  0.20613  1.0000
  O   O34       1.0  0.81657  0.67148  0.00169  1.0000
  C   C117      1.0  0.32255  0.17527  0.26696  1.0000
  C   C118      1.0  0.32248  0.14933  0.26729  1.0000
  H   H69       1.0  0.32214  0.14022  0.20673  1.0000
  H   H70       1.0  0.32222  0.18399  0.20625  1.0000
  O   O35       1.0  0.34011  0.14736  0.00179  1.0000
  C   C119      1.0  0.83637  0.14958  0.26687  1.0000
  C   C120      1.0  0.86231  0.17546  0.26721  1.0000
  H   H71       1.0  0.87143  0.18423  0.20665  1.0000
  H   H72       1.0  0.82766  0.14053  0.20617  1.0000
  O   O36       1.0  0.86428  0.19510  0.00170  1.0000
  C   C121      1.0  0.21500  0.52390  0.34699  1.0000
  C   C122      1.0  0.19301  0.49544  0.34545  1.0000
  C   C123      1.0  0.16433  0.48831  0.34058  1.0000
  C   C124      1.0  0.15776  0.51036  0.33790  1.0000
  C   C125      1.0  0.17959  0.53913  0.33959  1.0000
  C   C126      1.0  0.20816  0.54562  0.34362  1.0000
  H   H73       1.0  0.13708  0.50545  0.33301  1.0000
  H   H74       1.0  0.22414  0.56632  0.34425  1.0000
  H   H75       1.0  0.19801  0.47963  0.34670  1.0000
  C   C127      1.0  0.48773  0.69344  0.34695  1.0000
  C   C128      1.0  0.51619  0.69990  0.34538  1.0000
  C   C129      1.0  0.52332  0.67835  0.34055  1.0000
  C   C130      1.0  0.50126  0.64973  0.33797  1.0000
  C   C131      1.0  0.47249  0.64279  0.33962  1.0000
  C   C132      1.0  0.46601  0.66487  0.34362  1.0000
  H   H76       1.0  0.50617  0.63395  0.33303  1.0000
  H   H77       1.0  0.44531  0.66016  0.34426  1.0000
  H   H78       1.0  0.53201  0.72071  0.34660  1.0000
  C   C133      1.0  0.31821  0.79663  0.34699  1.0000
  C   C134      1.0  0.31173  0.81861  0.34544  1.0000
  C   C135      1.0  0.33327  0.84729  0.34051  1.0000
  C   C136      1.0  0.36190  0.85387  0.33792  1.0000
  C   C137      1.0  0.36885  0.83204  0.33955  1.0000
  C   C138      1.0  0.34678  0.80348  0.34362  1.0000
  H   H79       1.0  0.37767  0.87456  0.33296  1.0000
  H   H80       1.0  0.35150  0.78749  0.34428  1.0000
  H   H81       1.0  0.29092  0.81360  0.34666  1.0000
  C   C139      1.0  0.79892  0.48537  0.34693  1.0000
  C   C140      1.0  0.82090  0.51384  0.34545  1.0000
  C   C141      1.0  0.84958  0.52099  0.34051  1.0000
  C   C142      1.0  0.85617  0.49895  0.33788  1.0000
  C   C143      1.0  0.83435  0.47017  0.33948  1.0000
  C   C144      1.0  0.80579  0.46367  0.34352  1.0000
  H   H82       1.0  0.87686  0.50388  0.33300  1.0000
  H   H83       1.0  0.78981  0.44296  0.34417  1.0000
  H   H84       1.0  0.81589  0.52964  0.34673  1.0000
  C   C145      1.0  0.52623  0.31587  0.34697  1.0000
  C   C146      1.0  0.49776  0.30939  0.34549  1.0000
  C   C147      1.0  0.49062  0.33092  0.34060  1.0000
  C   C148      1.0  0.51267  0.35955  0.33789  1.0000
  C   C149      1.0  0.54144  0.36650  0.33950  1.0000
  C   C150      1.0  0.54794  0.34443  0.34356  1.0000
  H   H85       1.0  0.50775  0.37532  0.33298  1.0000
  H   H86       1.0  0.56864  0.34916  0.34419  1.0000
  H   H87       1.0  0.48196  0.28857  0.34678  1.0000
  C   C151      1.0  0.69575  0.21270  0.34695  1.0000
  C   C152      1.0  0.70224  0.19072  0.34551  1.0000
  C   C153      1.0  0.68070  0.16204  0.34065  1.0000
  C   C154      1.0  0.65207  0.15545  0.33790  1.0000
  C   C155      1.0  0.64512  0.17727  0.33952  1.0000
  C   C156      1.0  0.66718  0.20584  0.34353  1.0000
  H   H88       1.0  0.63631  0.13476  0.33303  1.0000
  H   H89       1.0  0.66246  0.22182  0.34413  1.0000
  H   H90       1.0  0.72305  0.19573  0.34681  1.0000
  C   C157      1.0  0.52627  0.21286  0.34543  1.0000
  C   C158      1.0  0.49781  0.19087  0.34742  1.0000
  C   C159      1.0  0.49062  0.16215  0.34505  1.0000
  C   C160      1.0  0.51263  0.15555  0.34038  1.0000
  C   C161      1.0  0.54140  0.17737  0.33813  1.0000
  C   C162      1.0  0.54793  0.20596  0.34026  1.0000
  H   H91       1.0  0.50770  0.13481  0.33945  1.0000
  H   H92       1.0  0.56864  0.22193  0.33967  1.0000
  H   H93       1.0  0.48206  0.19590  0.35162  1.0000
  C   C163      1.0  0.69587  0.48536  0.34539  1.0000
  C   C164      1.0  0.70233  0.51382  0.34746  1.0000
  C   C165      1.0  0.68080  0.52100  0.34511  1.0000
  C   C166      1.0  0.65219  0.49898  0.34043  1.0000
  C   C167      1.0  0.64525  0.47022  0.33809  1.0000
  C   C168      1.0  0.66732  0.46370  0.34020  1.0000
  H   H94       1.0  0.63638  0.50392  0.33955  1.0000
  H   H95       1.0  0.66258  0.44299  0.33954  1.0000
  H   H96       1.0  0.72312  0.52958  0.35171  1.0000
  C   C169      1.0  0.79880  0.31573  0.34530  1.0000
  C   C170      1.0  0.82080  0.30928  0.34741  1.0000
  C   C171      1.0  0.84952  0.33083  0.34510  1.0000
  C   C172      1.0  0.85610  0.35944  0.34050  1.0000
  C   C173      1.0  0.83426  0.36636  0.33811  1.0000
  C   C174      1.0  0.80568  0.34428  0.34011  1.0000
  H   H97       1.0  0.87684  0.37526  0.33969  1.0000
  H   H98       1.0  0.78970  0.34901  0.33950  1.0000
  H   H99       1.0  0.81579  0.28850  0.35162  1.0000
  C   C175      1.0  0.48772  0.79648  0.34532  1.0000
  C   C176      1.0  0.51618  0.81849  0.34742  1.0000
  C   C177      1.0  0.52334  0.84720  0.34512  1.0000
  C   C178      1.0  0.50131  0.85377  0.34051  1.0000
  C   C179      1.0  0.47255  0.83193  0.33815  1.0000
  C   C180      1.0  0.46605  0.80335  0.34014  1.0000
  H   H100      1.0  0.50622  0.87451  0.33974  1.0000
  H   H101      1.0  0.44534  0.78736  0.33952  1.0000
  H   H102      1.0  0.53195  0.81348  0.35162  1.0000
  C   C181      1.0  0.31805  0.52391  0.34532  1.0000
  C   C182      1.0  0.31161  0.49546  0.34743  1.0000
  C   C183      1.0  0.33316  0.48829  0.34515  1.0000
  C   C184      1.0  0.36176  0.51032  0.34049  1.0000
  C   C185      1.0  0.36868  0.53908  0.33813  1.0000
  C   C186      1.0  0.34660  0.54559  0.34012  1.0000
  H   H103      1.0  0.37758  0.50541  0.33971  1.0000
  H   H104      1.0  0.35132  0.56629  0.33950  1.0000
  H   H105      1.0  0.29083  0.47969  0.35167  1.0000
  C   C187      1.0  0.21519  0.69357  0.34537  1.0000
  C   C188      1.0  0.19319  0.70003  0.34738  1.0000
  C   C189      1.0  0.16447  0.67850  0.34508  1.0000
  C   C190      1.0  0.15788  0.64989  0.34043  1.0000
  C   C191      1.0  0.17971  0.64295  0.33817  1.0000
  C   C192      1.0  0.20830  0.66502  0.34025  1.0000
  H   H106      1.0  0.13714  0.63408  0.33954  1.0000
  H   H107      1.0  0.22427  0.66029  0.33966  1.0000
  H   H108      1.0  0.19821  0.72082  0.35158  1.0000
  C   C193      1.0  0.10615  0.36890  0.33867  1.0000
  C   C194      1.0  0.12619  0.35970  0.33965  1.0000
  C   C195      1.0  0.11788  0.33062  0.34256  1.0000
  C   C196      1.0  0.08841  0.31049  0.34385  1.0000
  C   C197      1.0  0.06766  0.31906  0.34261  1.0000
  C   C198      1.0  0.07705  0.34843  0.34049  1.0000
  H   H109      1.0  0.08200  0.28938  0.34684  1.0000
  H   H110      1.0  0.06248  0.35507  0.33974  1.0000
  H   H111      1.0  0.14734  0.37455  0.33885  1.0000
  C   C199      1.0  0.64272  0.73958  0.33866  1.0000
  C   C200      1.0  0.65194  0.76883  0.33970  1.0000
  C   C201      1.0  0.68102  0.78958  0.34260  1.0000
  C   C202      1.0  0.70114  0.78022  0.34388  1.0000
  C   C203      1.0  0.69255  0.75090  0.34256  1.0000
  C   C204      1.0  0.66318  0.73093  0.34043  1.0000
  H   H112      1.0  0.72225  0.79491  0.34686  1.0000
  H   H113      1.0  0.65652  0.70971  0.33964  1.0000
  H   H114      1.0  0.63709  0.77513  0.33894  1.0000
  C   C205      1.0  0.27206  0.90547  0.33862  1.0000
  C   C206      1.0  0.24281  0.88545  0.33968  1.0000
  C   C207      1.0  0.22207  0.89379  0.34264  1.0000
  C   C208      1.0  0.23143  0.92326  0.34389  1.0000
  C   C209      1.0  0.26075  0.94399  0.34257  1.0000
  C   C210      1.0  0.28072  0.93458  0.34041  1.0000
  H   H115      1.0  0.21675  0.92969  0.34689  1.0000
  H   H116      1.0  0.30193  0.94914  0.33962  1.0000
  H   H117      1.0  0.23650  0.86430  0.33892  1.0000
  C   C211      1.0  0.90781  0.64041  0.33864  1.0000
  C   C212      1.0  0.88778  0.64963  0.33965  1.0000
  C   C213      1.0  0.89611  0.67871  0.34259  1.0000
  C   C214      1.0  0.92558  0.69883  0.34384  1.0000
  C   C215      1.0  0.94631  0.69024  0.34256  1.0000
  C   C216      1.0  0.93691  0.66087  0.34045  1.0000
  H   H118      1.0  0.93201  0.71994  0.34681  1.0000
  H   H119      1.0  0.95147  0.65421  0.33971  1.0000
  H   H120      1.0  0.86663  0.63478  0.33887  1.0000
  C   C217      1.0  0.37122  0.26971  0.33862  1.0000
  C   C218      1.0  0.36200  0.24046  0.33971  1.0000
  C   C219      1.0  0.33292  0.21971  0.34263  1.0000
  C   C220      1.0  0.31280  0.22907  0.34383  1.0000
  C   C221      1.0  0.32139  0.25839  0.34250  1.0000
  C   C222      1.0  0.35076  0.27836  0.34038  1.0000
  H   H121      1.0  0.29169  0.21438  0.34681  1.0000
  H   H122      1.0  0.35742  0.29958  0.33957  1.0000
  H   H123      1.0  0.37685  0.23416  0.33897  1.0000
  C   C223      1.0  0.74193  0.10384  0.33868  1.0000
  C   C224      1.0  0.77118  0.12387  0.33971  1.0000
  C   C225      1.0  0.79192  0.11554  0.34259  1.0000
  C   C226      1.0  0.78257  0.08607  0.34380  1.0000
  C   C227      1.0  0.75325  0.06534  0.34255  1.0000
  C   C228      1.0  0.73328  0.07473  0.34047  1.0000
  H   H124      1.0  0.79726  0.07964  0.34679  1.0000
  H   H125      1.0  0.71206  0.06017  0.33971  1.0000
  H   H126      1.0  0.77748  0.14502  0.33896  1.0000
  C   C229      1.0  0.37123  0.10373  0.34107  1.0000
  C   C230      1.0  0.36199  0.12374  0.34203  1.0000
  C   C231      1.0  0.33290  0.11541  0.34199  1.0000
  C   C232      1.0  0.31277  0.08594  0.34135  1.0000
  C   C233      1.0  0.32138  0.06521  0.34066  1.0000
  C   C234      1.0  0.35076  0.07462  0.34036  1.0000
  H   H127      1.0  0.29166  0.07950  0.34382  1.0000
  H   H128      1.0  0.35742  0.06006  0.34195  1.0000
  H   H129      1.0  0.37683  0.14489  0.34423  1.0000
  C   C235      1.0  0.74180  0.64039  0.34111  1.0000
  C   C236      1.0  0.77105  0.64962  0.34203  1.0000
  C   C237      1.0  0.79180  0.67871  0.34193  1.0000
  C   C238      1.0  0.78246  0.69884  0.34133  1.0000
  C   C239      1.0  0.75314  0.69024  0.34061  1.0000
  C   C240      1.0  0.73315  0.66086  0.34041  1.0000
  H   H130      1.0  0.79715  0.71996  0.34374  1.0000
  H   H131      1.0  0.71194  0.65421  0.34198  1.0000
  H   H132      1.0  0.77735  0.63478  0.34422  1.0000
  C   C241      1.0  0.90791  0.26983  0.34107  1.0000
  C   C242      1.0  0.88789  0.24058  0.34199  1.0000
  C   C243      1.0  0.89622  0.21982  0.34186  1.0000
  C   C244      1.0  0.92569  0.22917  0.34131  1.0000
  C   C245      1.0  0.94642  0.25849  0.34057  1.0000
  C   C246      1.0  0.93702  0.27847  0.34038  1.0000
  H   H133      1.0  0.93212  0.21447  0.34373  1.0000
  H   H134      1.0  0.95158  0.29968  0.34197  1.0000
  H   H135      1.0  0.86675  0.23428  0.34419  1.0000
  C   C247      1.0  0.64272  0.90558  0.34110  1.0000
  C   C248      1.0  0.65196  0.88557  0.34205  1.0000
  C   C249      1.0  0.68105  0.89391  0.34190  1.0000
  C   C250      1.0  0.70117  0.92339  0.34135  1.0000
  C   C251      1.0  0.69257  0.94410  0.34061  1.0000
  C   C252      1.0  0.66318  0.93469  0.34039  1.0000
  H   H136      1.0  0.72229  0.92982  0.34371  1.0000
  H   H137      1.0  0.65652  0.94925  0.34194  1.0000
  H   H138      1.0  0.63712  0.86443  0.34423  1.0000
  C   C253      1.0  0.27218  0.36893  0.34124  1.0000
  C   C254      1.0  0.24293  0.35969  0.34216  1.0000
  C   C255      1.0  0.22217  0.33060  0.34202  1.0000
  C   C256      1.0  0.23151  0.31048  0.34134  1.0000
  C   C257      1.0  0.26084  0.31908  0.34063  1.0000
  C   C258      1.0  0.28082  0.34846  0.34047  1.0000
  H   H139      1.0  0.21683  0.28936  0.34362  1.0000
  H   H140      1.0  0.30203  0.35512  0.34202  1.0000
  H   H141      1.0  0.23663  0.37454  0.34432  1.0000
  C   C259      1.0  0.10606  0.73947  0.34115  1.0000
  C   C260      1.0  0.12607  0.76873  0.34212  1.0000
  C   C261      1.0  0.11773  0.78948  0.34204  1.0000
  C   C262      1.0  0.08826  0.78013  0.34140  1.0000
  C   C263      1.0  0.06754  0.75081  0.34062  1.0000
  C   C264      1.0  0.07695  0.73082  0.34042  1.0000
  H   H142      1.0  0.08183  0.79481  0.34375  1.0000
  H   H143      1.0  0.06239  0.70961  0.34189  1.0000
  H   H144      1.0  0.14722  0.77503  0.34430  1.0000
  C   C265      1.0  0.11960  0.41371  0.41520  1.0000
  C   C266      1.0  0.13350  0.44350  0.41492  1.0000
  H   H145      1.0  0.13786  0.45384  0.47545  1.0000
  H   H146      1.0  0.11403  0.40334  0.47569  1.0000
  C   C267      1.0  0.59791  0.70821  0.41520  1.0000
  C   C268      1.0  0.56812  0.69231  0.41490  1.0000
  H   H147      1.0  0.55778  0.68634  0.47542  1.0000
  H   H148      1.0  0.60828  0.71301  0.47569  1.0000
  C   C269      1.0  0.30343  0.89203  0.41518  1.0000
  C   C270      1.0  0.31934  0.87816  0.41491  1.0000
  H   H149      1.0  0.32531  0.87378  0.47543  1.0000
  H   H150      1.0  0.29864  0.89762  0.47566  1.0000
  C   C271      1.0  0.89437  0.59560  0.41522  1.0000
  C   C272      1.0  0.88049  0.56582  0.41499  1.0000
  H   H151      1.0  0.87612  0.55548  0.47553  1.0000
  H   H152      1.0  0.89998  0.60599  0.47569  1.0000
  C   C273      1.0  0.41602  0.30109  0.41524  1.0000
  C   C274      1.0  0.44581  0.31700  0.41503  1.0000
  H   H153      1.0  0.45614  0.32296  0.47556  1.0000
  H   H154      1.0  0.40563  0.29630  0.47571  1.0000
  C   C275      1.0  0.71052  0.11724  0.41530  1.0000
  C   C276      1.0  0.69467  0.13117  0.41505  1.0000
  H   H155      1.0  0.68864  0.13548  0.47557  1.0000
  H   H156      1.0  0.71531  0.11163  0.47576  1.0000
  C   C277      1.0  0.46134  0.14135  0.35022  1.0000
  C   C278      1.0  0.44588  0.13700  0.43165  1.0000
  C   C279      1.0  0.41569  0.12301  0.42884  1.0000
  C   C280      1.0  0.40075  0.11327  0.34658  1.0000
  N   N25       1.0  0.40146  0.12004  0.50699  1.0000
  C   C281      1.0  0.41440  0.12943  0.58748  1.0000
  C   C282      1.0  0.44405  0.14312  0.59100  1.0000
  N   N26       1.0  0.45878  0.14657  0.51366  1.0000
  H   H157      1.0  0.40266  0.12658  0.64410  1.0000
  H   H158      1.0  0.47931  0.15598  0.51859  1.0000
  C   C283      1.0  0.68926  0.55027  0.35045  1.0000
  C   C284      1.0  0.70039  0.56576  0.43180  1.0000
  C   C285      1.0  0.71661  0.59595  0.42897  1.0000
  C   C286      1.0  0.72181  0.61087  0.34668  1.0000
  N   N27       1.0  0.72789  0.61019  0.50710  1.0000
  C   C287      1.0  0.72433  0.59725  0.58759  1.0000
  C   C288      1.0  0.70836  0.56761  0.59114  1.0000
  N   N28       1.0  0.69707  0.55287  0.51381  1.0000
  H   H159      1.0  0.73324  0.60900  0.64420  1.0000
  H   H160      1.0  0.68595  0.53234  0.51876  1.0000
  C   C289      1.0  0.87034  0.32238  0.35049  1.0000
  C   C290      1.0  0.87469  0.31124  0.43183  1.0000
  C   C291      1.0  0.88866  0.29502  0.42896  1.0000
  C   C292      1.0  0.89837  0.28982  0.34666  1.0000
  N   N29       1.0  0.89162  0.28374  0.50708  1.0000
  C   C293      1.0  0.88224  0.28730  0.58759  1.0000
  C   C294      1.0  0.86857  0.30327  0.59116  1.0000
  N   N30       1.0  0.86512  0.31457  0.51385  1.0000
  H   H161      1.0  0.88508  0.27838  0.64419  1.0000
  H   H162      1.0  0.85571  0.32569  0.51879  1.0000
  C   C295      1.0  0.55261  0.86802  0.35052  1.0000
  C   C296      1.0  0.56809  0.87237  0.43185  1.0000
  C   C297      1.0  0.59828  0.88633  0.42899  1.0000
  C   C298      1.0  0.61319  0.89604  0.34667  1.0000
  N   N31       1.0  0.61253  0.88929  0.50710  1.0000
  C   C299      1.0  0.59959  0.87991  0.58761  1.0000
  C   C300      1.0  0.56995  0.86624  0.59118  1.0000
  N   N32       1.0  0.55520  0.86280  0.51387  1.0000
  H   H163      1.0  0.61134  0.88274  0.64421  1.0000
  H   H164      1.0  0.53467  0.85339  0.51882  1.0000
  C   C301      1.0  0.32471  0.45902  0.35051  1.0000
  C   C302      1.0  0.31358  0.44357  0.43190  1.0000
  C   C303      1.0  0.29737  0.41338  0.42907  1.0000
  C   C304      1.0  0.29217  0.39846  0.34677  1.0000
  N   N33       1.0  0.28608  0.39914  0.50720  1.0000
  C   C305      1.0  0.28964  0.41208  0.58769  1.0000
  C   C306      1.0  0.30561  0.44173  0.59123  1.0000
  N   N34       1.0  0.31691  0.45647  0.51390  1.0000
  H   H165      1.0  0.28073  0.40034  0.64430  1.0000
  H   H166      1.0  0.32803  0.47700  0.51882  1.0000
  C   C307      1.0  0.14367  0.68697  0.35027  1.0000
  C   C308      1.0  0.13933  0.69809  0.43169  1.0000
  C   C309      1.0  0.12534  0.71429  0.42891  1.0000
  C   C310      1.0  0.11559  0.71948  0.34666  1.0000
  N   N35       1.0  0.12238  0.72556  0.50706  1.0000
  C   C311      1.0  0.13178  0.72201  0.58753  1.0000
  C   C312      1.0  0.14546  0.70604  0.59104  1.0000
  N   N36       1.0  0.14890  0.69476  0.51370  1.0000
  H   H167      1.0  0.12895  0.73092  0.64416  1.0000
  H   H168      1.0  0.15831  0.68363  0.51862  1.0000
  C   C313      1.0  0.29562  0.52988  0.35158  1.0000
  C   C314      1.0  0.28105  0.52663  0.43412  1.0000
  C   C315      1.0  0.25488  0.52654  0.43299  1.0000
  C   C316      1.0  0.24341  0.52981  0.35141  1.0000
  N   N37       1.0  0.24067  0.52241  0.51192  1.0000
  C   C317      1.0  0.25026  0.51867  0.59177  1.0000
  C   C318      1.0  0.27609  0.51889  0.59369  1.0000
  N   N38       1.0  0.29053  0.52270  0.51547  1.0000
  H   H169      1.0  0.23877  0.51573  0.64909  1.0000
  H   H170      1.0  0.30843  0.52286  0.51925  1.0000
  C   C319      1.0  0.48176  0.76808  0.35156  1.0000
  C   C320      1.0  0.48500  0.75676  0.43410  1.0000
  C   C321      1.0  0.48510  0.73067  0.43295  1.0000
  C   C322      1.0  0.48183  0.71593  0.35136  1.0000
  N   N39       1.0  0.48923  0.72059  0.51188  1.0000
  C   C323      1.0  0.49296  0.73391  0.59174  1.0000
  C   C324      1.0  0.49273  0.75951  0.59367  1.0000
  N   N40       1.0  0.48892  0.77015  0.51546  1.0000
  H   H171      1.0  0.49590  0.72537  0.64905  1.0000
  H   H172      1.0  0.48875  0.78789  0.51924  1.0000
  C   C325      1.0  0.24359  0.71600  0.35166  1.0000
  C   C326      1.0  0.25489  0.73056  0.43420  1.0000
  C   C327      1.0  0.28098  0.75674  0.43306  1.0000
  C   C328      1.0  0.29573  0.76822  0.35150  1.0000
  N   N41       1.0  0.29105  0.77095  0.51199  1.0000
  C   C329      1.0  0.27773  0.76136  0.59184  1.0000
  C   C330      1.0  0.25212  0.73554  0.59377  1.0000
  N   N42       1.0  0.24149  0.72108  0.51555  1.0000
  H   H173      1.0  0.28627  0.77285  0.64915  1.0000
  H   H174      1.0  0.22375  0.70318  0.51932  1.0000
  C   C331      1.0  0.71828  0.47936  0.35172  1.0000
  C   C332      1.0  0.73287  0.48263  0.43422  1.0000
  C   C333      1.0  0.75905  0.48272  0.43307  1.0000
  C   C334      1.0  0.77051  0.47944  0.35150  1.0000
  N   N43       1.0  0.77326  0.48686  0.51199  1.0000
  C   C335      1.0  0.76368  0.49060  0.59184  1.0000
  C   C336      1.0  0.73786  0.49038  0.59378  1.0000
  N   N44       1.0  0.72340  0.48656  0.51558  1.0000
  H   H175      1.0  0.77518  0.49355  0.64914  1.0000
  H   H176      1.0  0.70550  0.48640  0.51936  1.0000
  C   C337      1.0  0.53227  0.24127  0.35176  1.0000
  C   C338      1.0  0.52900  0.25258  0.43427  1.0000
  C   C339      1.0  0.52890  0.27866  0.43311  1.0000
  C   C340      1.0  0.53216  0.29339  0.35153  1.0000
  N   N45       1.0  0.52475  0.28873  0.51202  1.0000
  C   C341      1.0  0.52102  0.27541  0.59188  1.0000
  C   C342      1.0  0.52125  0.24981  0.59384  1.0000
  N   N46       1.0  0.52509  0.23918  0.51564  1.0000
  H   H177      1.0  0.51806  0.28395  0.64918  1.0000
  H   H178      1.0  0.52524  0.22144  0.51942  1.0000
  C   C343      1.0  0.77040  0.29331  0.35158  1.0000
  C   C344      1.0  0.75907  0.27874  0.43413  1.0000
  C   C345      1.0  0.73298  0.25257  0.43302  1.0000
  C   C346      1.0  0.71824  0.24111  0.35145  1.0000
  N   N47       1.0  0.72290  0.23837  0.51195  1.0000
  C   C347      1.0  0.73623  0.24796  0.59180  1.0000
  C   C348      1.0  0.76184  0.27378  0.59370  1.0000
  N   N48       1.0  0.77248  0.28823  0.51548  1.0000
  H   H179      1.0  0.72769  0.23647  0.64911  1.0000
  H   H180      1.0  0.79022  0.30611  0.51924  1.0000
  C   C349      1.0  0.17125  0.59974  0.41527  1.0000
  C   C350      1.0  0.17122  0.57391  0.41511  1.0000
  H   H181      1.0  0.17085  0.56475  0.47562  1.0000
  H   H182      1.0  0.17092  0.60855  0.47580  1.0000
  C   C351      1.0  0.41189  0.57381  0.41528  1.0000
  C   C352      1.0  0.43771  0.59960  0.41514  1.0000
  H   H183      1.0  0.44689  0.60839  0.47566  1.0000
  H   H184      1.0  0.40308  0.56464  0.47579  1.0000
  C   C353      1.0  0.43782  0.84043  0.41532  1.0000
  C   C354      1.0  0.41203  0.84047  0.41513  1.0000
  H   H185      1.0  0.40323  0.84086  0.47563  1.0000
  H   H186      1.0  0.44697  0.84079  0.47584  1.0000
  C   C355      1.0  0.84277  0.40960  0.41526  1.0000
  C   C356      1.0  0.84275  0.43540  0.41505  1.0000
  H   H187      1.0  0.84319  0.44461  0.47555  1.0000
  H   H188      1.0  0.84312  0.40079  0.47579  1.0000
  C   C357      1.0  0.60205  0.43547  0.41520  1.0000
  C   C358      1.0  0.57621  0.40968  0.41504  1.0000
  H   H189      1.0  0.56703  0.40091  0.47557  1.0000
  H   H190      1.0  0.61083  0.44466  0.47570  1.0000
  C   C359      1.0  0.57615  0.16891  0.41520  1.0000
  C   C360      1.0  0.60195  0.16889  0.41501  1.0000
  H   H191      1.0  0.61074  0.16851  0.47553  1.0000
  H   H192      1.0  0.56701  0.16857  0.47573  1.0000
  C   C361      1.0  0.97636  0.26883  0.34576  1.0000
  C   C362      1.0  0.99173  0.27836  0.42814  1.0000
  C   C363      1.0  0.02208  0.29354  0.42711  1.0000
  C   C364      1.0  0.03769  0.29946  0.34581  1.0000
  N   N49       1.0  0.03602  0.30309  0.50665  1.0000
  C   C365      1.0  0.02276  0.29879  0.58686  1.0000
  C   C366      1.0  0.99307  0.28385  0.58866  1.0000
  N   N50       1.0  0.97858  0.27424  0.51002  1.0000
  H   H193      1.0  0.03431  0.30641  0.64456  1.0000
  H   H194      1.0  0.95800  0.26391  0.51384  1.0000
  C   C367      1.0  0.74280  0.70985  0.34576  1.0000
  C   C368      1.0  0.73326  0.71570  0.42812  1.0000
  C   C369      1.0  0.71807  0.73085  0.42706  1.0000
  C   C370      1.0  0.71215  0.74052  0.34572  1.0000
  N   N51       1.0  0.70851  0.73524  0.50659  1.0000
  C   C371      1.0  0.71282  0.72629  0.58680  1.0000
  C   C372      1.0  0.72777  0.71156  0.58865  1.0000
  N   N52       1.0  0.73738  0.70667  0.51002  1.0000
  H   H195      1.0  0.70520  0.73023  0.64450  1.0000
  H   H196      1.0  0.74772  0.69643  0.51387  1.0000
  C   C373      1.0  0.30179  0.03526  0.34578  1.0000
  C   C374      1.0  0.29594  0.01989  0.42817  1.0000
  C   C375      1.0  0.28080  0.98955  0.42709  1.0000
  C   C376      1.0  0.27115  0.97397  0.34572  1.0000
  N   N53       1.0  0.27641  0.97560  0.50662  1.0000
  C   C377      1.0  0.28534  0.98885  0.58685  1.0000
  C   C378      1.0  0.30007  0.01854  0.58869  1.0000
  N   N54       1.0  0.30497  0.03304  0.51006  1.0000
  H   H197      1.0  0.28141  0.97730  0.64454  1.0000
  H   H198      1.0  0.31520  0.05362  0.51391  1.0000
  C   C379      1.0  0.03759  0.74044  0.34570  1.0000
  C   C380      1.0  0.02223  0.73093  0.42811  1.0000
  C   C381      1.0  0.99188  0.71575  0.42709  1.0000
  C   C382      1.0  0.97629  0.70982  0.34576  1.0000
  N   N55       1.0  0.97794  0.70620  0.50663  1.0000
  C   C383      1.0  0.99120  0.71050  0.58683  1.0000
  C   C384      1.0  0.02089  0.72546  0.58865  1.0000
  N   N56       1.0  0.03539  0.73506  0.51000  1.0000
  H   H199      1.0  0.97965  0.70289  0.64454  1.0000
  H   H200      1.0  0.05596  0.74539  0.51383  1.0000
  C   C385      1.0  0.27120  0.29949  0.34567  1.0000
  C   C386      1.0  0.28071  0.29362  0.42806  1.0000
  C   C387      1.0  0.29589  0.27846  0.42698  1.0000
  C   C388      1.0  0.30180  0.26879  0.34563  1.0000
  N   N57       1.0  0.30545  0.27406  0.50650  1.0000
  C   C389      1.0  0.30115  0.28301  0.58673  1.0000
  C   C390      1.0  0.28620  0.29775  0.58858  1.0000
  N   N58       1.0  0.27660  0.30266  0.50996  1.0000
  H   H201      1.0  0.30876  0.27907  0.64442  1.0000
  H   H202      1.0  0.26627  0.31290  0.51381  1.0000
  C   C391      1.0  0.71215  0.97406  0.34569  1.0000
  C   C392      1.0  0.71801  0.98942  0.42809  1.0000
  C   C393      1.0  0.73317  0.01977  0.42705  1.0000
  C   C394      1.0  0.74284  0.03535  0.34570  1.0000
  N   N59       1.0  0.73756  0.03371  0.50658  1.0000
  C   C395      1.0  0.72861  0.02046  0.58679  1.0000
  C   C396      1.0  0.71387  0.99077  0.58861  1.0000
  N   N60       1.0  0.70897  0.97627  0.50998  1.0000
  H   H203      1.0  0.73255  0.03201  0.64450  1.0000
  H   H204      1.0  0.69873  0.95570  0.51382  1.0000
  C   C397      1.0  0.19295  0.32333  0.34779  1.0000
  C   C398      1.0  0.18102  0.32627  0.42974  1.0000
  C   C399      1.0  0.15478  0.32634  0.42833  1.0000
  C   C400      1.0  0.13987  0.32339  0.34705  1.0000
  N   N61       1.0  0.14472  0.33049  0.50723  1.0000
  C   C401      1.0  0.15799  0.33422  0.58716  1.0000
  C   C402      1.0  0.18361  0.33404  0.58935  1.0000
  N   N62       1.0  0.19431  0.33021  0.51131  1.0000
  H   H205      1.0  0.14943  0.33720  0.64436  1.0000
  H   H206      1.0  0.21208  0.33013  0.51539  1.0000
  C   C403      1.0  0.68835  0.87199  0.34788  1.0000
  C   C404      1.0  0.68540  0.85711  0.42978  1.0000
  C   C405      1.0  0.68533  0.83080  0.42840  1.0000
  C   C406      1.0  0.68828  0.81880  0.34720  1.0000
  N   N63       1.0  0.68118  0.81660  0.50731  1.0000
  C   C407      1.0  0.67744  0.82614  0.58724  1.0000
  C   C408      1.0  0.67763  0.85193  0.58939  1.0000
  N   N64       1.0  0.68146  0.86646  0.51134  1.0000
  H   H207      1.0  0.67445  0.81459  0.64444  1.0000
  H   H208      1.0  0.68154  0.88432  0.51539  1.0000
  C   C409      1.0  0.13966  0.81870  0.34796  1.0000
  C   C410      1.0  0.15454  0.83065  0.42986  1.0000
  C   C411      1.0  0.18084  0.85689  0.42845  1.0000
  C   C412      1.0  0.19284  0.87182  0.34724  1.0000
  N   N65       1.0  0.19505  0.86695  0.50736  1.0000
  C   C413      1.0  0.18551  0.85368  0.58730  1.0000
  C   C414      1.0  0.15972  0.82806  0.58947  1.0000
  N   N66       1.0  0.14519  0.81736  0.51143  1.0000
  H   H209      1.0  0.19706  0.86224  0.64449  1.0000
  H   H210      1.0  0.12734  0.79958  0.51549  1.0000
  C   C415      1.0  0.82103  0.68600  0.34785  1.0000
  C   C416      1.0  0.83296  0.68307  0.42978  1.0000
  C   C417      1.0  0.85920  0.68301  0.42834  1.0000
  C   C418      1.0  0.87413  0.68596  0.34709  1.0000
  N   N67       1.0  0.86926  0.67886  0.50724  1.0000
  C   C419      1.0  0.85599  0.67512  0.58718  1.0000
  C   C420      1.0  0.83037  0.67529  0.58938  1.0000
  N   N68       1.0  0.81967  0.67912  0.51134  1.0000
  H   H211      1.0  0.86455  0.67213  0.64437  1.0000
  H   H212      1.0  0.80188  0.67918  0.51541  1.0000
  C   C421      1.0  0.32562  0.13734  0.34793  1.0000
  C   C422      1.0  0.32854  0.15220  0.42988  1.0000
  C   C423      1.0  0.32860  0.17850  0.42848  1.0000
  C   C424      1.0  0.32567  0.19049  0.34726  1.0000
  N   N69       1.0  0.33275  0.19270  0.50740  1.0000
  C   C425      1.0  0.33648  0.18316  0.58733  1.0000
  C   C426      1.0  0.33631  0.15736  0.58948  1.0000
  N   N70       1.0  0.33249  0.14284  0.51144  1.0000
  H   H213      1.0  0.33947  0.19470  0.64453  1.0000
  H   H214      1.0  0.33242  0.12499  0.51547  1.0000
  C   C427      1.0  0.87428  0.19060  0.34783  1.0000
  C   C428      1.0  0.85942  0.17868  0.42979  1.0000
  C   C429      1.0  0.83313  0.15244  0.42842  1.0000
  C   C430      1.0  0.82115  0.13753  0.34717  1.0000
  N   N71       1.0  0.81893  0.14239  0.50734  1.0000
  C   C431      1.0  0.82847  0.15567  0.58726  1.0000
  C   C432      1.0  0.85427  0.18129  0.58940  1.0000
  N   N72       1.0  0.86879  0.19199  0.51134  1.0000
  H   H215      1.0  0.81693  0.14712  0.64446  1.0000
  H   H216      1.0  0.88664  0.20977  0.51537  1.0000
