data_image0
_chemical_formula_structural       C2H2CN2C2H2C2NCH2C8NC36H20N4C3NC3NC5NC5NC36H26N4C3NC3NC5NC5NC36H26N4C3H2C2HNO2CHC3H2C2HNO2CHC3H2C2HNO2CHC3H2C2HNO2CHC3H2C2HNO2CHC3H2C2HNO2CHC16H16C16H16C16H16C7H3NO2CHC7H3NO2CHC7H3NO2CHC7H3NO2CHC7H3NO2CHC7H3NO2CH
_chemical_formula_sum              "C288 H174 N36 O24"
_cell_length_a       75.3706
_cell_length_b       75.3706
_cell_length_c       14.9655
_cell_angle_alpha    89.8516
_cell_angle_beta     90.1484
_cell_angle_gamma    120

_space_group_name_H-M_alt    "P 1"
_space_group_IT_number       1

loop_
  _space_group_symop_operation_xyz
  'x, y, z'

loop_
  _atom_site_type_symbol
  _atom_site_label
  _atom_site_symmetry_multiplicity
  _atom_site_fract_x
  _atom_site_fract_y
  _atom_site_fract_z
  _atom_site_occupancy
  C   C1        1.0  0.01226  0.50774  0.31069  1.0000
  C   C2        1.0  0.01007  0.58303  0.31003  1.0000
  H   H1        1.0  0.01094  0.47824  0.31242  1.0000
  H   H2        1.0  0.00713  0.61031  0.31133  1.0000
  C   C3        1.0  0.01946  0.49388  0.31141  1.0000
  N   N1        1.0  0.02925  0.52658  0.30964  1.0000
  N   N2        1.0  0.02763  0.58220  0.30972  1.0000
  C   C4        1.0  0.01628  0.60388  0.31089  1.0000
  C   C5        1.0  0.03742  0.61491  0.31177  1.0000
  H   H3        1.0  0.02889  0.53913  0.30912  1.0000
  H   H4        1.0  0.02800  0.56966  0.30905  1.0000
  C   C6        1.0  0.04061  0.50490  0.31060  1.0000
  C   C7        1.0  0.04681  0.52575  0.30992  1.0000
  N   N3        1.0  0.06174  0.57175  0.31012  1.0000
  C   C8        1.0  0.04462  0.60104  0.31093  1.0000
  H   H5        1.0  0.04976  0.49847  0.31105  1.0000
  H   H6        1.0  0.04594  0.63054  0.31290  1.0000
  C   C9        1.0  0.06752  0.54199  0.30968  1.0000
  C   C10       1.0  0.07375  0.56315  0.30983  1.0000
  C   C11       1.0  0.07289  0.59243  0.31093  1.0000
  C   C12       1.0  0.09341  0.59742  0.31095  1.0000
  C   C13       1.0  0.09394  0.57938  0.31041  1.0000
  C   C14       1.0  0.06564  0.60656  0.31164  1.0000
  C   C15       1.0  0.98936  0.56680  0.30967  1.0000
  C   C16       1.0  0.98313  0.54564  0.30968  1.0000
  N   N4        1.0  0.99515  0.53704  0.30990  1.0000
  C   C17       1.0  0.98399  0.51636  0.31070  1.0000
  C   C18       1.0  0.96347  0.51137  0.31081  1.0000
  C   C19       1.0  0.96294  0.52941  0.31031  1.0000
  C   C20       1.0  0.99125  0.50223  0.31141  1.0000
  C   C21       1.0  0.97628  0.48100  0.31431  1.0000
  C   C22       1.0  0.94436  0.43918  0.31978  1.0000
  C   C23       1.0  0.95340  0.44883  0.23767  1.0000
  C   C24       1.0  0.96908  0.46949  0.23480  1.0000
  C   C25       1.0  0.92752  0.41866  0.32198  1.0000
  C   C26       1.0  0.92767  0.40282  0.27176  1.0000
  C   C27       1.0  0.91072  0.38276  0.27239  1.0000
  C   C28       1.0  0.89296  0.37804  0.32165  1.0000
  C   C29       1.0  0.97365  0.57207  0.31050  1.0000
  C   C30       1.0  0.94170  0.58196  0.31260  1.0000
  C   C31       1.0  0.94862  0.57796  0.23124  1.0000
  C   C32       1.0  0.96441  0.57313  0.23003  1.0000
  C   C33       1.0  0.92550  0.58661  0.31392  1.0000
  C   C34       1.0  0.89261  0.59531  0.31934  1.0000
  C   C35       1.0  0.89135  0.57944  0.26513  1.0000
  C   C36       1.0  0.90751  0.57515  0.26238  1.0000
  C   C37       1.0  0.08060  0.62779  0.31457  1.0000
  C   C38       1.0  0.08750  0.63943  0.23517  1.0000
  C   C39       1.0  0.10303  0.66015  0.23806  1.0000
  C   C40       1.0  0.11222  0.66973  0.32008  1.0000
  C   C41       1.0  0.12886  0.69035  0.32227  1.0000
  C   C42       1.0  0.16298  0.73123  0.32203  1.0000
  C   C43       1.0  0.14502  0.72632  0.27368  1.0000
  C   C44       1.0  0.12829  0.70613  0.27299  1.0000
  C   C45       1.0  0.08325  0.53674  0.31042  1.0000
  C   C46       1.0  0.09241  0.53572  0.22989  1.0000
  C   C47       1.0  0.11550  0.52727  0.31246  1.0000
  C   C48       1.0  0.10834  0.53110  0.23106  1.0000
  C   C49       1.0  0.13193  0.52293  0.31377  1.0000
  C   C50       1.0  0.14978  0.53457  0.26181  1.0000
  C   C51       1.0  0.16617  0.53062  0.26459  1.0000
  C   C52       1.0  0.16529  0.51494  0.31932  1.0000
  H   H7        1.0  0.17895  0.53955  0.22705  1.0000
  H   H8        1.0  0.15128  0.54643  0.22295  1.0000
  H   H9        1.0  0.11453  0.53033  0.17141  1.0000
  H   H10       1.0  0.08763  0.53845  0.16997  1.0000
  H   H11       1.0  0.10705  0.57851  0.31060  1.0000
  H   H12       1.0  0.10608  0.61173  0.31132  1.0000
  H   H13       1.0  0.08153  0.63281  0.17463  1.0000
  H   H14       1.0  0.10812  0.66796  0.17902  1.0000
  H   H15       1.0  0.95080  0.49706  0.31128  1.0000
  H   H16       1.0  0.94984  0.53028  0.31064  1.0000
  H   H17       1.0  0.96906  0.57033  0.17011  1.0000
  H   H18       1.0  0.94239  0.57878  0.17161  1.0000
  H   H19       1.0  0.90574  0.56316  0.22391  1.0000
  H   H20       1.0  0.87846  0.57062  0.22792  1.0000
  H   H21       1.0  0.97489  0.47620  0.17420  1.0000
  H   H22       1.0  0.94807  0.44115  0.17856  1.0000
  H   H23       1.0  0.91129  0.37168  0.23516  1.0000
  H   H24       1.0  0.94024  0.40572  0.23477  1.0000
  H   H25       1.0  0.11555  0.70311  0.23672  1.0000
  H   H26       1.0  0.14414  0.73736  0.23716  1.0000
  N   N5        1.0  0.87715  0.35894  0.31923  1.0000
  N   N6        1.0  0.18164  0.51254  0.31941  1.0000
  N   N7        1.0  0.17858  0.75044  0.31969  1.0000
  N   N8        1.0  0.87646  0.59804  0.31942  1.0000
  C   C53       1.0  0.57962  0.61934  0.31296  1.0000
  C   C54       1.0  0.59064  0.60921  0.31372  1.0000
  C   C55       1.0  0.57678  0.58815  0.31298  1.0000
  N   N9        1.0  0.55794  0.58630  0.31192  1.0000
  C   C56       1.0  0.55876  0.60469  0.31220  1.0000
  C   C57       1.0  0.54253  0.60916  0.31190  1.0000
  C   C58       1.0  0.52137  0.59423  0.31204  1.0000
  N   N10       1.0  0.51277  0.57362  0.31236  1.0000
  C   C59       1.0  0.49209  0.56409  0.31317  1.0000
  C   C60       1.0  0.48710  0.57962  0.31317  1.0000
  C   C61       1.0  0.50513  0.59819  0.31260  1.0000
  C   C62       1.0  0.47796  0.54270  0.31391  1.0000
  C   C63       1.0  0.48347  0.52721  0.31317  1.0000
  N   N11       1.0  0.50231  0.52906  0.31196  1.0000
  C   C64       1.0  0.50148  0.51067  0.31226  1.0000
  C   C65       1.0  0.48063  0.49602  0.31312  1.0000
  C   C66       1.0  0.46961  0.50615  0.31404  1.0000
  C   C67       1.0  0.51771  0.50619  0.31191  1.0000
  C   C68       1.0  0.53888  0.52112  0.31192  1.0000
  N   N12       1.0  0.54747  0.54174  0.31215  1.0000
  C   C69       1.0  0.56816  0.55126  0.31293  1.0000
  C   C70       1.0  0.57315  0.53573  0.31301  1.0000
  C   C71       1.0  0.55511  0.51716  0.31252  1.0000
  C   C72       1.0  0.58229  0.57265  0.31361  1.0000
  C   C73       1.0  0.60352  0.57890  0.31651  1.0000
  C   C74       1.0  0.64534  0.58881  0.32197  1.0000
  C   C75       1.0  0.63567  0.58823  0.23983  1.0000
  C   C76       1.0  0.61501  0.58327  0.23698  1.0000
  C   C77       1.0  0.66586  0.59248  0.32416  1.0000
  C   C78       1.0  0.68168  0.60849  0.27375  1.0000
  C   C79       1.0  0.70175  0.61161  0.27435  1.0000
  C   C80       1.0  0.70648  0.59854  0.32368  1.0000
  C   C81       1.0  0.51245  0.48521  0.31273  1.0000
  C   C82       1.0  0.50255  0.44337  0.31482  1.0000
  C   C83       1.0  0.50656  0.45437  0.23346  1.0000
  C   C84       1.0  0.51139  0.47499  0.23226  1.0000
  C   C85       1.0  0.49790  0.42251  0.31613  1.0000
  C   C86       1.0  0.48919  0.38092  0.32147  1.0000
  C   C87       1.0  0.50507  0.39559  0.26727  1.0000
  C   C88       1.0  0.50937  0.41604  0.26461  1.0000
  C   C89       1.0  0.45672  0.53644  0.31683  1.0000
  C   C90       1.0  0.44509  0.53179  0.23743  1.0000
  C   C91       1.0  0.42438  0.52662  0.24031  1.0000
  C   C92       1.0  0.41478  0.52611  0.32235  1.0000
  C   C93       1.0  0.39416  0.52212  0.32455  1.0000
  C   C94       1.0  0.35329  0.51538  0.32414  1.0000
  C   C95       1.0  0.35820  0.50239  0.27572  1.0000
  C   C96       1.0  0.37839  0.50584  0.27510  1.0000
  C   C97       1.0  0.54778  0.63014  0.31263  1.0000
  C   C98       1.0  0.54880  0.64040  0.23210  1.0000
  C   C99       1.0  0.55725  0.67186  0.31464  1.0000
  C   C100      1.0  0.55342  0.66095  0.23325  1.0000
  C   C101      1.0  0.56158  0.69262  0.31595  1.0000
  C   C102      1.0  0.54995  0.69889  0.26397  1.0000
  C   C103      1.0  0.55389  0.71922  0.26676  1.0000
  C   C104      1.0  0.56956  0.73396  0.32153  1.0000
  H   H27       1.0  0.54495  0.72310  0.22923  1.0000
  H   H28       1.0  0.53809  0.68856  0.22510  1.0000
  H   H29       1.0  0.55419  0.66797  0.17359  1.0000
  H   H30       1.0  0.54607  0.63295  0.17217  1.0000
  H   H31       1.0  0.58604  0.63491  0.31332  1.0000
  H   H32       1.0  0.60628  0.61633  0.31469  1.0000
  H   H33       1.0  0.54539  0.57339  0.31127  1.0000
  H   H34       1.0  0.51486  0.54197  0.31129  1.0000
  H   H35       1.0  0.50601  0.61216  0.31278  1.0000
  H   H36       1.0  0.47279  0.57798  0.31355  1.0000
  H   H37       1.0  0.45172  0.53254  0.17689  1.0000
  H   H38       1.0  0.41657  0.52395  0.18128  1.0000
  H   H39       1.0  0.45398  0.49902  0.31522  1.0000
  H   H40       1.0  0.47420  0.48044  0.31365  1.0000
  H   H41       1.0  0.58745  0.53737  0.31344  1.0000
  H   H42       1.0  0.55424  0.50319  0.31281  1.0000
  H   H43       1.0  0.51418  0.48250  0.17234  1.0000
  H   H44       1.0  0.50573  0.44738  0.17382  1.0000
  H   H45       1.0  0.52135  0.42629  0.22609  1.0000
  H   H46       1.0  0.51388  0.39155  0.23005  1.0000
  H   H47       1.0  0.60830  0.58242  0.17638  1.0000
  H   H48       1.0  0.64336  0.59066  0.18073  1.0000
  H   H49       1.0  0.71281  0.62326  0.23693  1.0000
  H   H50       1.0  0.67878  0.61819  0.23669  1.0000
  H   H51       1.0  0.38142  0.49619  0.23869  1.0000
  H   H52       1.0  0.34718  0.49054  0.23899  1.0000
  N   N13       1.0  0.72556  0.60180  0.32112  1.0000
  N   N14       1.0  0.57195  0.75271  0.32167  1.0000
  N   N15       1.0  0.33408  0.51179  0.32162  1.0000
  N   N16       1.0  0.48645  0.36203  0.32148  1.0000
  C   C105      1.0  0.46517  0.04389  0.31478  1.0000
  C   C106      1.0  0.47529  0.06504  0.31571  1.0000
  C   C107      1.0  0.49635  0.07224  0.31508  1.0000
  N   N17       1.0  0.49821  0.05526  0.31398  1.0000
  C   C108      1.0  0.47982  0.03769  0.31409  1.0000
  C   C109      1.0  0.47536  0.01699  0.31370  1.0000
  C   C110      1.0  0.49029  0.01076  0.31395  1.0000
  N   N18       1.0  0.51090  0.02278  0.31438  1.0000
  C   C111      1.0  0.52043  0.01163  0.31528  1.0000
  C   C112      1.0  0.50491  0.99111  0.31524  1.0000
  C   C113      1.0  0.48634  0.99057  0.31453  1.0000
  C   C114      1.0  0.54183  0.01889  0.31607  1.0000
  C   C115      1.0  0.55732  0.03991  0.31526  1.0000
  N   N19       1.0  0.55546  0.05689  0.31406  1.0000
  C   C116      1.0  0.57385  0.07446  0.31420  1.0000
  C   C117      1.0  0.58850  0.06826  0.31495  1.0000
  C   C118      1.0  0.57838  0.04711  0.31599  1.0000
  C   C119      1.0  0.57832  0.09516  0.31379  1.0000
  C   C120      1.0  0.56338  0.10139  0.31395  1.0000
  N   N20       1.0  0.54277  0.08937  0.31426  1.0000
  C   C121      1.0  0.53324  0.10052  0.31511  1.0000
  C   C122      1.0  0.54877  0.12104  0.31517  1.0000
  C   C123      1.0  0.56734  0.12158  0.31456  1.0000
  C   C124      1.0  0.51185  0.09326  0.31584  1.0000
  C   C125      1.0  0.50559  0.10823  0.31875  1.0000
  C   C126      1.0  0.49569  0.14014  0.32424  1.0000
  C   C127      1.0  0.49626  0.13113  0.24211  1.0000
  C   C128      1.0  0.50122  0.11544  0.23924  1.0000
  C   C129      1.0  0.49202  0.15699  0.32645  1.0000
  C   C130      1.0  0.47601  0.15686  0.27607  1.0000
  C   C131      1.0  0.47290  0.17381  0.27665  1.0000
  C   C132      1.0  0.48598  0.19156  0.32598  1.0000
  C   C133      1.0  0.59929  0.11088  0.31425  1.0000
  C   C134      1.0  0.64114  0.14284  0.31554  1.0000
  C   C135      1.0  0.63006  0.13586  0.23438  1.0000
  C   C136      1.0  0.60944  0.12007  0.23358  1.0000
  C   C137      1.0  0.66200  0.15904  0.31643  1.0000
  C   C138      1.0  0.70360  0.19191  0.32086  1.0000
  C   C139      1.0  0.68888  0.19314  0.26693  1.0000
  C   C140      1.0  0.66842  0.17699  0.26469  1.0000
  C   C141      1.0  0.54810  0.00393  0.31901  1.0000
  C   C142      1.0  0.55275  0.99703  0.23960  1.0000
  C   C143      1.0  0.55793  0.98149  0.24250  1.0000
  C   C144      1.0  0.55844  0.97232  0.32454  1.0000
  C   C145      1.0  0.56242  0.95568  0.32673  1.0000
  C   C146      1.0  0.56915  0.92154  0.32629  1.0000
  C   C147      1.0  0.58214  0.93950  0.27789  1.0000
  C   C148      1.0  0.57869  0.95623  0.27728  1.0000
  C   C149      1.0  0.45438  0.00126  0.31409  1.0000
  C   C150      1.0  0.44419  0.99214  0.23338  1.0000
  C   C151      1.0  0.41266  0.96900  0.31537  1.0000
  C   C152      1.0  0.42364  0.97621  0.23417  1.0000
  C   C153      1.0  0.39190  0.95257  0.31629  1.0000
  C   C154      1.0  0.38568  0.93476  0.26411  1.0000
  C   C155      1.0  0.36535  0.91837  0.26647  1.0000
  C   C156      1.0  0.35054  0.91922  0.32093  1.0000
  H   H53       1.0  0.36149  0.90562  0.22876  1.0000
  H   H54       1.0  0.39604  0.93328  0.22542  1.0000
  H   H55       1.0  0.41668  0.97006  0.17438  1.0000
  H   H56       1.0  0.45170  0.99696  0.17358  1.0000
  H   H57       1.0  0.44959  0.03474  0.31507  1.0000
  H   H58       1.0  0.46817  0.07356  0.31669  1.0000
  H   H59       1.0  0.51112  0.05563  0.31344  1.0000
  H   H60       1.0  0.54255  0.05652  0.31351  1.0000
  H   H61       1.0  0.47237  0.97747  0.31469  1.0000
  H   H62       1.0  0.50656  0.97844  0.31567  1.0000
  H   H63       1.0  0.55199  0.00296  0.17905  1.0000
  H   H64       1.0  0.56058  0.97639  0.18345  1.0000
  H   H65       1.0  0.58551  0.03860  0.31710  1.0000
  H   H66       1.0  0.60408  0.07741  0.31535  1.0000
  H   H67       1.0  0.54712  0.13371  0.31563  1.0000
  H   H68       1.0  0.58131  0.13468  0.31480  1.0000
  H   H69       1.0  0.60187  0.11538  0.17379  1.0000
  H   H70       1.0  0.63699  0.14205  0.17461  1.0000
  H   H71       1.0  0.65813  0.17874  0.22640  1.0000
  H   H72       1.0  0.69288  0.20600  0.22958  1.0000
  H   H73       1.0  0.50207  0.10964  0.17863  1.0000
  H   H74       1.0  0.49383  0.13645  0.18301  1.0000
  H   H75       1.0  0.46124  0.17325  0.23928  1.0000
  H   H76       1.0  0.46631  0.14429  0.23902  1.0000
  H   H77       1.0  0.58835  0.96896  0.24090  1.0000
  H   H78       1.0  0.59399  0.94036  0.24119  1.0000
  N   N21       1.0  0.48272  0.20739  0.32340  1.0000
  N   N22       1.0  0.33178  0.90287  0.32056  1.0000
  N   N23       1.0  0.57274  0.90593  0.32379  1.0000
  N   N24       1.0  0.72249  0.20805  0.32044  1.0000
  C   C157      1.0  0.30712  0.51918  0.31744  1.0000
  C   C158      1.0  0.28098  0.52901  0.29070  1.0000
  C   C159      1.0  0.30143  0.53343  0.28670  1.0000
  H   H79       1.0  0.27760  0.53996  0.27041  1.0000
  H   H80       1.0  0.31225  0.54747  0.26281  1.0000
  C   C160      1.0  0.21399  0.50384  0.27017  1.0000
  C   C161      1.0  0.23344  0.50556  0.25896  1.0000
  H   H81       1.0  0.20570  0.50311  0.21459  1.0000
  N   N25       1.0  0.24123  0.50596  0.17241  1.0000
  O   O1        1.0  0.22985  0.48975  0.13025  1.0000
  O   O2        1.0  0.24315  0.52093  0.12744  1.0000
  C   C162      1.0  0.32774  0.52479  0.31854  1.0000
  H   H82       1.0  0.33810  0.53967  0.31591  1.0000
  C   C163      1.0  0.56534  0.87158  0.31959  1.0000
  C   C164      1.0  0.55550  0.83563  0.29300  1.0000
  C   C165      1.0  0.55108  0.85166  0.28897  1.0000
  H   H83       1.0  0.54454  0.82131  0.27269  1.0000
  H   H84       1.0  0.53704  0.84847  0.26501  1.0000
  C   C166      1.0  0.58064  0.79381  0.27242  1.0000
  C   C167      1.0  0.57893  0.81156  0.26122  1.0000
  H   H85       1.0  0.58136  0.78630  0.21684  1.0000
  N   N26       1.0  0.57852  0.81903  0.17467  1.0000
  O   O3        1.0  0.59472  0.82390  0.13248  1.0000
  O   O4        1.0  0.56354  0.80603  0.12974  1.0000
  C   C168      1.0  0.55973  0.88659  0.32068  1.0000
  H   H86       1.0  0.54486  0.88208  0.31797  1.0000
  C   C169      1.0  0.21293  0.77742  0.31563  1.0000
  C   C170      1.0  0.24888  0.80359  0.28954  1.0000
  C   C171      1.0  0.23286  0.78314  0.28515  1.0000
  H   H87       1.0  0.26323  0.80699  0.26945  1.0000
  H   H88       1.0  0.23609  0.77234  0.26119  1.0000
  C   C172      1.0  0.29073  0.87059  0.27033  1.0000
  C   C173      1.0  0.27298  0.85115  0.25866  1.0000
  H   H89       1.0  0.29829  0.87893  0.21493  1.0000
  N   N27       1.0  0.26560  0.84345  0.17192  1.0000
  O   O5        1.0  0.26077  0.85486  0.12981  1.0000
  O   O6        1.0  0.27865  0.84156  0.12713  1.0000
  C   C174      1.0  0.19792  0.75680  0.31641  1.0000
  H   H90       1.0  0.20244  0.74644  0.31343  1.0000
  C   C175      1.0  0.75211  0.59382  0.31758  1.0000
  C   C176      1.0  0.77776  0.58336  0.29114  1.0000
  C   C177      1.0  0.75742  0.57929  0.28725  1.0000
  H   H91       1.0  0.78088  0.57223  0.27106  1.0000
  H   H92       1.0  0.74641  0.56532  0.26360  1.0000
  C   C178      1.0  0.84456  0.60747  0.26995  1.0000
  C   C179      1.0  0.82525  0.60611  0.25881  1.0000
  H   H93       1.0  0.85271  0.60803  0.21433  1.0000
  N   N28       1.0  0.81742  0.60583  0.17228  1.0000
  O   O7        1.0  0.82894  0.62196  0.12981  1.0000
  O   O8        1.0  0.81517  0.59074  0.12760  1.0000
  C   C180      1.0  0.73159  0.58855  0.31887  1.0000
  H   H94       1.0  0.72104  0.57372  0.31700  1.0000
  C   C181      1.0  0.49071  0.24193  0.31984  1.0000
  C   C182      1.0  0.50115  0.27805  0.29327  1.0000
  C   C183      1.0  0.50522  0.26179  0.28940  1.0000
  H   H95       1.0  0.51228  0.29232  0.27319  1.0000
  H   H96       1.0  0.51920  0.26478  0.26583  1.0000
  C   C184      1.0  0.47703  0.32075  0.27204  1.0000
  C   C185      1.0  0.47839  0.30281  0.26091  1.0000
  H   H97       1.0  0.47646  0.32840  0.21642  1.0000
  N   N29       1.0  0.47867  0.29535  0.17439  1.0000
  O   O9        1.0  0.46253  0.29078  0.13193  1.0000
  O   O10       1.0  0.49375  0.30823  0.12968  1.0000
  C   C186      1.0  0.49597  0.22667  0.32114  1.0000
  H   H98       1.0  0.51080  0.23095  0.31927  1.0000
  C   C187      1.0  0.84261  0.33238  0.31579  1.0000
  C   C188      1.0  0.80647  0.30670  0.28991  1.0000
  C   C189      1.0  0.82273  0.32704  0.28564  1.0000
  H   H99       1.0  0.79218  0.30357  0.26996  1.0000
  H   H100      1.0  0.81972  0.33803  0.26187  1.0000
  C   C190      1.0  0.76374  0.23989  0.27001  1.0000
  C   C191      1.0  0.78167  0.25919  0.25845  1.0000
  H   H101      1.0  0.75604  0.23168  0.21459  1.0000
  N   N30       1.0  0.78905  0.26693  0.17175  1.0000
  O   O11       1.0  0.79358  0.25537  0.12940  1.0000
  O   O12       1.0  0.77613  0.26914  0.12716  1.0000
  C   C192      1.0  0.85786  0.35291  0.31677  1.0000
  H   H102      1.0  0.85358  0.36345  0.31459  1.0000
  C   C193      1.0  0.96768  0.47141  0.39668  1.0000
  C   C194      1.0  0.95192  0.45080  0.39922  1.0000
  C   C195      1.0  0.89287  0.39368  0.37330  1.0000
  C   C196      1.0  0.90985  0.41366  0.37329  1.0000
  C   C197      1.0  0.96689  0.57602  0.39200  1.0000
  C   C198      1.0  0.95118  0.58096  0.39288  1.0000
  C   C199      1.0  0.92678  0.60268  0.36754  1.0000
  C   C200      1.0  0.91065  0.60701  0.37012  1.0000
  C   C201      1.0  0.10499  0.65796  0.39941  1.0000
  C   C202      1.0  0.08937  0.63729  0.39685  1.0000
  C   C203      1.0  0.14673  0.69553  0.37267  1.0000
  C   C204      1.0  0.16350  0.71563  0.37274  1.0000
  C   C205      1.0  0.09022  0.53292  0.39194  1.0000
  C   C206      1.0  0.10607  0.52819  0.39278  1.0000
  C   C207      1.0  0.14739  0.50307  0.37054  1.0000
  C   C208      1.0  0.13103  0.50706  0.36793  1.0000
  H   H103      1.0  0.14605  0.49142  0.41028  1.0000
  H   H104      1.0  0.11828  0.49804  0.40541  1.0000
  H   H105      1.0  0.11103  0.52595  0.45322  1.0000
  H   H106      1.0  0.08393  0.53375  0.45125  1.0000
  H   H107      1.0  0.08469  0.62914  0.45527  1.0000
  H   H108      1.0  0.11108  0.66434  0.46014  1.0000
  H   H109      1.0  0.97326  0.57519  0.45126  1.0000
  H   H110      1.0  0.94640  0.58334  0.45330  1.0000
  H   H111      1.0  0.91226  0.61878  0.40946  1.0000
  H   H112      1.0  0.93964  0.61159  0.40470  1.0000
  H   H113      1.0  0.90894  0.42466  0.40957  1.0000
  H   H114      1.0  0.88037  0.39066  0.41108  1.0000
  H   H115      1.0  0.94594  0.44437  0.46002  1.0000
  H   H116      1.0  0.97256  0.47947  0.45517  1.0000
  H   H117      1.0  0.14794  0.68457  0.40830  1.0000
  H   H118      1.0  0.17615  0.71878  0.40988  1.0000
  C   C209      1.0  0.61312  0.57984  0.39888  1.0000
  C   C210      1.0  0.63373  0.58468  0.40142  1.0000
  C   C211      1.0  0.69085  0.58278  0.37553  1.0000
  C   C212      1.0  0.67087  0.57979  0.37554  1.0000
  C   C213      1.0  0.50850  0.47442  0.39423  1.0000
  C   C214      1.0  0.50356  0.45377  0.39510  1.0000
  C   C215      1.0  0.48184  0.40767  0.36973  1.0000
  C   C216      1.0  0.47750  0.38721  0.37227  1.0000
  C   C217      1.0  0.42655  0.53055  0.40169  1.0000
  C   C218      1.0  0.44722  0.53559  0.39913  1.0000
  C   C219      1.0  0.38897  0.53473  0.37509  1.0000
  C   C220      1.0  0.36887  0.53141  0.37506  1.0000
  C   C221      1.0  0.55159  0.64084  0.39415  1.0000
  C   C222      1.0  0.55633  0.66143  0.39497  1.0000
  C   C223      1.0  0.58143  0.72788  0.37276  1.0000
  C   C224      1.0  0.57745  0.70753  0.37013  1.0000
  H   H119      1.0  0.59307  0.73815  0.41253  1.0000
  H   H120      1.0  0.58647  0.70378  0.40762  1.0000
  H   H121      1.0  0.55856  0.66857  0.45541  1.0000
  H   H122      1.0  0.55076  0.63367  0.45346  1.0000
  H   H123      1.0  0.45536  0.53899  0.45755  1.0000
  H   H124      1.0  0.42017  0.53018  0.46244  1.0000
  H   H125      1.0  0.50932  0.48155  0.45350  1.0000
  H   H126      1.0  0.50117  0.44654  0.45551  1.0000
  H   H127      1.0  0.46572  0.37700  0.41159  1.0000
  H   H128      1.0  0.47292  0.41158  0.40688  1.0000
  H   H129      1.0  0.65988  0.56786  0.41201  1.0000
  H   H130      1.0  0.69388  0.57328  0.41338  1.0000
  H   H131      1.0  0.64017  0.58509  0.46222  1.0000
  H   H132      1.0  0.60506  0.57661  0.45738  1.0000
  H   H133      1.0  0.39992  0.54685  0.41078  1.0000
  H   H134      1.0  0.36572  0.54086  0.41223  1.0000
  C   C225      1.0  0.50466  0.11681  0.40114  1.0000
  C   C226      1.0  0.49982  0.13257  0.40368  1.0000
  C   C227      1.0  0.50174  0.19163  0.37779  1.0000
  C   C228      1.0  0.50472  0.17464  0.37783  1.0000
  C   C229      1.0  0.61017  0.11769  0.39555  1.0000
  C   C230      1.0  0.63082  0.13340  0.39602  1.0000
  C   C231      1.0  0.67689  0.15779  0.36977  1.0000
  C   C232      1.0  0.69736  0.17391  0.37185  1.0000
  C   C233      1.0  0.55399  0.97956  0.40387  1.0000
  C   C234      1.0  0.54894  0.99518  0.40130  1.0000
  C   C235      1.0  0.54980  0.93782  0.37725  1.0000
  C   C236      1.0  0.55312  0.92104  0.37721  1.0000
  C   C237      1.0  0.44361  0.99423  0.39543  1.0000
  C   C238      1.0  0.42302  0.97838  0.39589  1.0000
  C   C239      1.0  0.35658  0.93708  0.37237  1.0000
  C   C240      1.0  0.37694  0.95344  0.37018  1.0000
  H   H135      1.0  0.34627  0.93839  0.41192  1.0000
  H   H136      1.0  0.38066  0.96615  0.40782  1.0000
  H   H137      1.0  0.41582  0.97337  0.45620  1.0000
  H   H138      1.0  0.45073  0.00048  0.45487  1.0000
  H   H139      1.0  0.54555  0.99987  0.45972  1.0000
  H   H140      1.0  0.55436  0.97349  0.46461  1.0000
  H   H141      1.0  0.60309  0.11136  0.45495  1.0000
  H   H142      1.0  0.63811  0.13823  0.45630  1.0000
  H   H143      1.0  0.70761  0.17232  0.41098  1.0000
  H   H144      1.0  0.67302  0.14496  0.40704  1.0000
  H   H145      1.0  0.51666  0.17554  0.41423  1.0000
  H   H146      1.0  0.51124  0.20412  0.41562  1.0000
  H   H147      1.0  0.49942  0.13854  0.46449  1.0000
  H   H148      1.0  0.50791  0.11193  0.45962  1.0000
  H   H149      1.0  0.53768  0.93662  0.41295  1.0000
  H   H150      1.0  0.54366  0.90839  0.41437  1.0000
  C   C241      1.0  0.29150  0.50014  0.35107  1.0000
  C   C242      1.0  0.27100  0.49570  0.35517  1.0000
  C   C243      1.0  0.26551  0.51013  0.32551  1.0000
  C   C244      1.0  0.24518  0.50661  0.33536  1.0000
  C   C245      1.0  0.23709  0.50564  0.42207  1.0000
  C   C246      1.0  0.21753  0.50376  0.43112  1.0000
  C   C247      1.0  0.20590  0.50317  0.35593  1.0000
  H   H151      1.0  0.21203  0.50342  0.49405  1.0000
  H   H152      1.0  0.29498  0.48954  0.37549  1.0000
  H   H153      1.0  0.26014  0.48198  0.38160  1.0000
  N   N31       1.0  0.24889  0.50724  0.49871  1.0000
  O   O13       1.0  0.23987  0.49160  0.54743  1.0000
  O   O14       1.0  0.25287  0.52276  0.54449  1.0000
  C   C248      1.0  0.18706  0.50192  0.36783  1.0000
  H   H154      1.0  0.17835  0.49373  0.41874  1.0000
  C   C249      1.0  0.58438  0.87496  0.35328  1.0000
  C   C250      1.0  0.58881  0.85889  0.35740  1.0000
  C   C251      1.0  0.57437  0.83899  0.32778  1.0000
  C   C252      1.0  0.57789  0.82218  0.33763  1.0000
  C   C253      1.0  0.57887  0.81496  0.42433  1.0000
  C   C254      1.0  0.58073  0.79726  0.43337  1.0000
  C   C255      1.0  0.58132  0.78631  0.35817  1.0000
  H   H155      1.0  0.58110  0.79206  0.49629  1.0000
  H   H156      1.0  0.59498  0.88902  0.37758  1.0000
  H   H157      1.0  0.60253  0.86172  0.38377  1.0000
  N   N32       1.0  0.57729  0.82510  0.50098  1.0000
  O   O15       1.0  0.59294  0.83167  0.54964  1.0000
  O   O16       1.0  0.56178  0.81352  0.54680  1.0000
  C   C256      1.0  0.58256  0.76870  0.37008  1.0000
  H   H158      1.0  0.59080  0.76815  0.42085  1.0000
  C   C257      1.0  0.20951  0.79301  0.34940  1.0000
  C   C258      1.0  0.22557  0.81351  0.35388  1.0000
  C   C259      1.0  0.24550  0.81903  0.32449  1.0000
  C   C260      1.0  0.26230  0.83935  0.33480  1.0000
  C   C261      1.0  0.26943  0.84736  0.42168  1.0000
  C   C262      1.0  0.28711  0.86691  0.43118  1.0000
  C   C263      1.0  0.29814  0.87860  0.35627  1.0000
  H   H159      1.0  0.29227  0.87235  0.49424  1.0000
  H   H160      1.0  0.19544  0.78951  0.37365  1.0000
  H   H161      1.0  0.22272  0.82434  0.38041  1.0000
  N   N33       1.0  0.25923  0.83550  0.49806  1.0000
  O   O17       1.0  0.25261  0.84447  0.54677  1.0000
  O   O18       1.0  0.27077  0.83147  0.54396  1.0000
  C   C264      1.0  0.31574  0.89743  0.36861  1.0000
  H   H162      1.0  0.31625  0.90610  0.41955  1.0000
  C   C265      1.0  0.76799  0.61274  0.35085  1.0000
  C   C266      1.0  0.78838  0.61683  0.35485  1.0000
  C   C267      1.0  0.79350  0.60213  0.32551  1.0000
  C   C268      1.0  0.81371  0.60531  0.33526  1.0000
  C   C269      1.0  0.82185  0.60615  0.42193  1.0000
  C   C270      1.0  0.84126  0.60766  0.43090  1.0000
  C   C271      1.0  0.85269  0.60802  0.35567  1.0000
  H   H163      1.0  0.84680  0.60794  0.49381  1.0000
  H   H164      1.0  0.76478  0.62353  0.37495  1.0000
  H   H165      1.0  0.79943  0.63048  0.38093  1.0000
  N   N34       1.0  0.81024  0.60480  0.49863  1.0000
  O   O19       1.0  0.81954  0.62043  0.54702  1.0000
  O   O20       1.0  0.80605  0.58923  0.54471  1.0000
  C   C272      1.0  0.87137  0.60891  0.36752  1.0000
  H   H166      1.0  0.88027  0.61710  0.41803  1.0000
  C   C273      1.0  0.47178  0.23884  0.35310  1.0000
  C   C274      1.0  0.46768  0.25514  0.35700  1.0000
  C   C275      1.0  0.48238  0.27498  0.32763  1.0000
  C   C276      1.0  0.47920  0.29200  0.33737  1.0000
  C   C277      1.0  0.47836  0.29922  0.42403  1.0000
  C   C278      1.0  0.47684  0.31710  0.43300  1.0000
  C   C279      1.0  0.47648  0.32824  0.35776  1.0000
  H   H167      1.0  0.47658  0.32231  0.49590  1.0000
  H   H168      1.0  0.46100  0.22482  0.37721  1.0000
  H   H169      1.0  0.45403  0.25251  0.38310  1.0000
  N   N35       1.0  0.47973  0.28889  0.50073  1.0000
  O   O21       1.0  0.46410  0.28250  0.54916  1.0000
  O   O22       1.0  0.49531  0.30024  0.54678  1.0000
  C   C280      1.0  0.47558  0.34603  0.36958  1.0000
  H   H170      1.0  0.46743  0.34669  0.42022  1.0000
  C   C281      1.0  0.84573  0.31653  0.34925  1.0000
  C   C282      1.0  0.82943  0.29614  0.35361  1.0000
  C   C283      1.0  0.80956  0.29100  0.32448  1.0000
  C   C284      1.0  0.79254  0.27080  0.33466  1.0000
  C   C285      1.0  0.78541  0.26274  0.42150  1.0000
  C   C286      1.0  0.76752  0.24334  0.43090  1.0000
  C   C287      1.0  0.75632  0.23184  0.35592  1.0000
  H   H171      1.0  0.76239  0.23785  0.49392  1.0000
  H   H172      1.0  0.85976  0.31976  0.37323  1.0000
  H   H173      1.0  0.83208  0.28512  0.37983  1.0000
  N   N36       1.0  0.79581  0.27442  0.49794  1.0000
  O   O23       1.0  0.80224  0.26517  0.54640  1.0000
  O   O24       1.0  0.78451  0.27865  0.54407  1.0000
  C   C288      1.0  0.73855  0.21315  0.36817  1.0000
  H   H174      1.0  0.73795  0.20432  0.41884  1.0000
