data_image0
_chemical_formula_structural       C8HC7HCH4C8HC7HCH4C2H3NC3H3NC3H3NC3H3NC3H3NC3H3NC9HC7HCH4C3H3NC3H3NC3H3NC3H3NC3H3NC3H3NC8HC7HCH4C8HC7HCH4C2H3NC3H3NC3H3NC3H3NC3H3NC3H3NC9HC7HCH4C3H3NC3H3NC3H3NC3H3NC3H3NC3H3NC8HC7HCH4C8HC7HCH4C2H3NC3H3NC3H3NC3H3NC3H3NC3H3NC9HC7HCH4C3H3NC3H3NC3H3NC3H3NC3H3NC3H3NC8HC7HCH4C8HC7HCH4C2H3NC3H3NC3H3NC3H3NC3H3NC3H3NC9HC7HCH4C3H3NC3H3NC3H3NC3H3NC3H3NC3H3N
_chemical_formula_sum              "C336 H216 N48"
_cell_length_a       42.4792
_cell_length_b       42.4793
_cell_length_c       14.8306
_cell_angle_alpha    90.0022
_cell_angle_beta     89.9978
_cell_angle_gamma    120

_space_group_name_H-M_alt    "P 1"
_space_group_IT_number       1

loop_
  _space_group_symop_operation_xyz
  'x, y, z'

loop_
  _atom_site_type_symbol
  _atom_site_label
  _atom_site_symmetry_multiplicity
  _atom_site_fract_x
  _atom_site_fract_y
  _atom_site_fract_z
  _atom_site_occupancy
  C   C1        1.0  0.26669  0.28886  0.34342  1.0000
  C   C2        1.0  0.26654  0.25515  0.34387  1.0000
  C   C3        1.0  0.23300  0.22160  0.34494  1.0000
  C   C4        1.0  0.20004  0.22214  0.34429  1.0000
  C   C5        1.0  0.19943  0.25506  0.34290  1.0000
  C   C6        1.0  0.23294  0.28864  0.34300  1.0000
  C   C7        1.0  0.30033  0.25618  0.34356  1.0000
  C   C8        1.0  0.23390  0.32240  0.34288  1.0000
  H   H1        1.0  0.17589  0.19796  0.34438  1.0000
  C   C9        1.0  0.30048  0.32269  0.34343  1.0000
  C   C10       1.0  0.33423  0.32291  0.34305  1.0000
  C   C11       1.0  0.36774  0.35649  0.34296  1.0000
  C   C12       1.0  0.36713  0.38941  0.34430  1.0000
  C   C13       1.0  0.33418  0.38995  0.34495  1.0000
  C   C14       1.0  0.30063  0.35640  0.34386  1.0000
  C   C15       1.0  0.33328  0.28915  0.34294  1.0000
  H   H2        1.0  0.39129  0.41359  0.34440  1.0000
  C   C16       1.0  0.26684  0.35537  0.34352  1.0000
  H   H3        1.0  0.35672  0.28795  0.34291  1.0000
  H   H4        1.0  0.30159  0.23276  0.34374  1.0000
  H   H5        1.0  0.26558  0.37879  0.34370  1.0000
  H   H6        1.0  0.21045  0.32360  0.34284  1.0000
  C   C17       1.0  0.30051  0.05580  0.34342  1.0000
  C   C18       1.0  0.33422  0.08936  0.34387  1.0000
  C   C19       1.0  0.36777  0.08936  0.34494  1.0000
  C   C20       1.0  0.36723  0.05587  0.34426  1.0000
  C   C21       1.0  0.33431  0.02234  0.34288  1.0000
  C   C22       1.0  0.30073  0.02227  0.34299  1.0000
  C   C23       1.0  0.33319  0.12212  0.34357  1.0000
  C   C24       1.0  0.26697  0.48947  0.34287  1.0000
  H   H7        1.0  0.39141  0.05589  0.34435  1.0000
  C   C25       1.0  0.26668  0.05576  0.34344  1.0000
  C   C26       1.0  0.26646  0.08929  0.34305  1.0000
  C   C27       1.0  0.23287  0.08921  0.34296  1.0000
  C   C28       1.0  0.19996  0.05569  0.34432  1.0000
  C   C29       1.0  0.19942  0.02219  0.34497  1.0000
  C   C30       1.0  0.23297  0.02219  0.34387  1.0000
  C   C31       1.0  0.30021  0.12209  0.34293  1.0000
  H   H8        1.0  0.17577  0.05565  0.34442  1.0000
  C   C32       1.0  0.23400  0.48943  0.34354  1.0000
  H   H9        1.0  0.30142  0.14674  0.34292  1.0000
  H   H10       1.0  0.35661  0.14680  0.34375  1.0000
  H   H11       1.0  0.21058  0.46475  0.34371  1.0000
  H   H12       1.0  0.26577  0.46481  0.34283  1.0000
  C   C33       1.0  0.16113  0.25496  0.16708  1.0000
  C   C34       1.0  0.14751  0.25378  0.25951  1.0000
  H   H13       1.0  0.14099  0.23148  0.12910  1.0000
  H   H14       1.0  0.18663  0.25463  0.16605  1.0000
  H   H15       1.0  0.16554  0.27969  0.13342  1.0000
  N   N1        1.0  0.11561  0.25388  0.26741  1.0000
  C   C35       1.0  0.16514  0.25287  0.33998  1.0000
  C   C36       1.0  0.33441  0.48413  0.16706  1.0000
  C   C37       1.0  0.33560  0.47169  0.25950  1.0000
  H   H16       1.0  0.35789  0.48747  0.12908  1.0000
  H   H17       1.0  0.33473  0.00995  0.16603  1.0000
  H   H18       1.0  0.30968  0.46380  0.13341  1.0000
  N   N2        1.0  0.33551  0.43970  0.26740  1.0000
  C   C38       1.0  0.33650  0.49023  0.33996  1.0000
  C   C39       1.0  0.10521  0.42827  0.16707  1.0000
  C   C40       1.0  0.11766  0.44188  0.25950  1.0000
  H   H19       1.0  0.10186  0.44841  0.12913  1.0000
  H   H20       1.0  0.07939  0.40276  0.16604  1.0000
  H   H21       1.0  0.12553  0.42388  0.13336  1.0000
  N   N3        1.0  0.14966  0.47378  0.26741  1.0000
  C   C41       1.0  0.09916  0.42423  0.33998  1.0000
  C   C42       1.0  0.40617  0.35688  0.16712  1.0000
  C   C43       1.0  0.41973  0.35792  0.25954  1.0000
  H   H22       1.0  0.42633  0.38044  0.12938  1.0000
  H   H23       1.0  0.38066  0.35718  0.16612  1.0000
  H   H24       1.0  0.40181  0.33222  0.13318  1.0000
  N   N4        1.0  0.45162  0.35781  0.26740  1.0000
  C   C44       1.0  0.40203  0.35866  0.34004  1.0000
  C   C45       1.0  0.23256  0.12729  0.16711  1.0000
  C   C46       1.0  0.23149  0.13980  0.25954  1.0000
  H   H25       1.0  0.20902  0.12392  0.12932  1.0000
  H   H26       1.0  0.23224  0.10147  0.16610  1.0000
  H   H27       1.0  0.25723  0.14759  0.13323  1.0000
  N   N5        1.0  0.23161  0.17181  0.26740  1.0000
  C   C47       1.0  0.23068  0.12132  0.34002  1.0000
  C   C48       1.0  0.46209  0.18323  0.16713  1.0000
  C   C49       1.0  0.44957  0.16965  0.25955  1.0000
  H   H28       1.0  0.46546  0.16306  0.12934  1.0000
  H   H29       1.0  0.48791  0.20873  0.16612  1.0000
  H   H30       1.0  0.44179  0.18760  0.13324  1.0000
  N   N6        1.0  0.41757  0.13776  0.26742  1.0000
  C   C50       1.0  0.46805  0.18733  0.34004  1.0000
  C   C51       1.0  0.03358  0.32268  0.34342  1.0000
  C   C52       1.0  0.50001  0.32283  0.34387  1.0000
  C   C53       1.0  0.50002  0.35638  0.34491  1.0000
  C   C54       1.0  0.03351  0.38933  0.34425  1.0000
  C   C55       1.0  0.06703  0.38994  0.34289  1.0000
  C   C56       1.0  0.06711  0.35643  0.34300  1.0000
  C   C57       1.0  0.46725  0.28904  0.34356  1.0000
  C   C58       1.0  0.09990  0.35547  0.34289  1.0000
  H   H31       1.0  0.03349  0.41349  0.34431  1.0000
  C   C59       1.0  0.03361  0.28889  0.34344  1.0000
  C   C60       1.0  0.50008  0.25514  0.34306  1.0000
  C   C61       1.0  0.50016  0.22163  0.34298  1.0000
  C   C62       1.0  0.03369  0.22224  0.34436  1.0000
  C   C63       1.0  0.06718  0.25520  0.34497  1.0000
  C   C64       1.0  0.06718  0.28875  0.34387  1.0000
  C   C65       1.0  0.46728  0.25609  0.34293  1.0000
  H   H32       1.0  0.03372  0.19809  0.34445  1.0000
  C   C66       1.0  0.09994  0.32253  0.34354  1.0000
  H   H33       1.0  0.44263  0.23265  0.34292  1.0000
  H   H34       1.0  0.44257  0.28778  0.34374  1.0000
  H   H35       1.0  0.12462  0.32379  0.34371  1.0000
  H   H36       1.0  0.12456  0.37892  0.34285  1.0000
  C   C67       1.0  0.09937  0.25313  0.34699  1.0000
  C   C68       1.0  0.11747  0.25320  0.42738  1.0000
  C   C69       1.0  0.10378  0.25407  0.51847  1.0000
  H   H37       1.0  0.10178  0.27855  0.52634  1.0000
  H   H38       1.0  0.12189  0.25408  0.57075  1.0000
  H   H39       1.0  0.07696  0.23024  0.52824  1.0000
  N   N7        1.0  0.14940  0.25315  0.41960  1.0000
  C   C70       1.0  0.33627  0.42422  0.34698  1.0000
  C   C71       1.0  0.33613  0.44222  0.42737  1.0000
  C   C72       1.0  0.33525  0.42766  0.51845  1.0000
  H   H40       1.0  0.31077  0.40117  0.52629  1.0000
  H   H41       1.0  0.33521  0.44574  0.57073  1.0000
  H   H42       1.0  0.35909  0.42468  0.52827  1.0000
  N   N8        1.0  0.33618  0.47420  0.41958  1.0000
  C   C73       1.0  0.16516  0.49002  0.34699  1.0000
  C   C74       1.0  0.14715  0.47188  0.42738  1.0000
  C   C75       1.0  0.16171  0.48557  0.51846  1.0000
  H   H43       1.0  0.18820  0.48759  0.52631  1.0000
  H   H44       1.0  0.14363  0.46745  0.57074  1.0000
  H   H45       1.0  0.16468  0.01238  0.52826  1.0000
  N   N9        1.0  0.11518  0.43996  0.41960  1.0000
  C   C76       1.0  0.46783  0.35847  0.34697  1.0000
  C   C77       1.0  0.44973  0.35836  0.42738  1.0000
  C   C78       1.0  0.46347  0.35758  0.51845  1.0000
  H   H46       1.0  0.46552  0.33312  0.52639  1.0000
  H   H47       1.0  0.44537  0.35756  0.57076  1.0000
  H   H48       1.0  0.49028  0.38144  0.52812  1.0000
  N   N10       1.0  0.41779  0.35839  0.41964  1.0000
  C   C79       1.0  0.23091  0.18734  0.34698  1.0000
  C   C80       1.0  0.23100  0.16932  0.42738  1.0000
  C   C81       1.0  0.23180  0.18386  0.51845  1.0000
  H   H49       1.0  0.25626  0.21035  0.52640  1.0000
  H   H50       1.0  0.23181  0.16576  0.57075  1.0000
  H   H51       1.0  0.20794  0.18681  0.52814  1.0000
  N   N11       1.0  0.23097  0.13735  0.41962  1.0000
  C   C82       1.0  0.40204  0.12154  0.34700  1.0000
  C   C83       1.0  0.42004  0.13965  0.42740  1.0000
  C   C84       1.0  0.40551  0.12592  0.51847  1.0000
  H   H52       1.0  0.37901  0.12388  0.52640  1.0000
  H   H53       1.0  0.42360  0.14403  0.57077  1.0000
  H   H54       1.0  0.40256  0.09911  0.52816  1.0000
  N   N12       1.0  0.45201  0.17159  0.41964  1.0000
  C   C85       1.0  0.26669  0.78886  0.34342  1.0000
  C   C86       1.0  0.26654  0.75515  0.34387  1.0000
  C   C87       1.0  0.23300  0.72160  0.34494  1.0000
  C   C88       1.0  0.20004  0.72214  0.34429  1.0000
  C   C89       1.0  0.19943  0.75506  0.34290  1.0000
  C   C90       1.0  0.23294  0.78864  0.34300  1.0000
  C   C91       1.0  0.30033  0.75618  0.34356  1.0000
  C   C92       1.0  0.23390  0.82240  0.34288  1.0000
  H   H55       1.0  0.17589  0.69796  0.34438  1.0000
  C   C93       1.0  0.30048  0.82269  0.34343  1.0000
  C   C94       1.0  0.33423  0.82291  0.34305  1.0000
  C   C95       1.0  0.36774  0.85649  0.34296  1.0000
  C   C96       1.0  0.36713  0.88941  0.34430  1.0000
  C   C97       1.0  0.33418  0.88995  0.34495  1.0000
  C   C98       1.0  0.30063  0.85640  0.34386  1.0000
  C   C99       1.0  0.33328  0.78916  0.34294  1.0000
  H   H56       1.0  0.39129  0.91359  0.34440  1.0000
  C   C100      1.0  0.26684  0.85537  0.34352  1.0000
  H   H57       1.0  0.35672  0.78795  0.34291  1.0000
  H   H58       1.0  0.30159  0.73276  0.34374  1.0000
  H   H59       1.0  0.26558  0.87880  0.34370  1.0000
  H   H60       1.0  0.21045  0.82360  0.34284  1.0000
  C   C101      1.0  0.30051  0.55580  0.34342  1.0000
  C   C102      1.0  0.33422  0.58937  0.34387  1.0000
  C   C103      1.0  0.36777  0.58936  0.34494  1.0000
  C   C104      1.0  0.36723  0.55587  0.34426  1.0000
  C   C105      1.0  0.33431  0.52234  0.34288  1.0000
  C   C106      1.0  0.30073  0.52227  0.34299  1.0000
  C   C107      1.0  0.33319  0.62213  0.34357  1.0000
  C   C108      1.0  0.26698  0.98947  0.34287  1.0000
  H   H61       1.0  0.39141  0.55589  0.34435  1.0000
  C   C109      1.0  0.26668  0.55576  0.34344  1.0000
  C   C110      1.0  0.26646  0.58929  0.34305  1.0000
  C   C111      1.0  0.23287  0.58921  0.34296  1.0000
  C   C112      1.0  0.19996  0.55569  0.34432  1.0000
  C   C113      1.0  0.19942  0.52219  0.34497  1.0000
  C   C114      1.0  0.23297  0.52219  0.34387  1.0000
  C   C115      1.0  0.30021  0.62209  0.34293  1.0000
  H   H62       1.0  0.17577  0.55565  0.34442  1.0000
  C   C116      1.0  0.23400  0.98943  0.34354  1.0000
  H   H63       1.0  0.30142  0.64674  0.34292  1.0000
  H   H64       1.0  0.35661  0.64680  0.34375  1.0000
  H   H65       1.0  0.21058  0.96476  0.34371  1.0000
  H   H66       1.0  0.26577  0.96481  0.34283  1.0000
  C   C117      1.0  0.16113  0.75496  0.16708  1.0000
  C   C118      1.0  0.14751  0.75378  0.25951  1.0000
  H   H67       1.0  0.14099  0.73148  0.12910  1.0000
  H   H68       1.0  0.18663  0.75463  0.16605  1.0000
  H   H69       1.0  0.16554  0.77969  0.13342  1.0000
  N   N13       1.0  0.11561  0.75388  0.26741  1.0000
  C   C119      1.0  0.16514  0.75287  0.33998  1.0000
  C   C120      1.0  0.33441  0.98413  0.16706  1.0000
  C   C121      1.0  0.33560  0.97169  0.25950  1.0000
  H   H70       1.0  0.35789  0.98747  0.12908  1.0000
  H   H71       1.0  0.33473  0.50995  0.16603  1.0000
  H   H72       1.0  0.30969  0.96380  0.13341  1.0000
  N   N14       1.0  0.33550  0.93970  0.26740  1.0000
  C   C122      1.0  0.33650  0.99023  0.33996  1.0000
  C   C123      1.0  0.10521  0.92826  0.16707  1.0000
  C   C124      1.0  0.11766  0.94188  0.25950  1.0000
  H   H73       1.0  0.10186  0.94841  0.12913  1.0000
  H   H74       1.0  0.07939  0.90276  0.16604  1.0000
  H   H75       1.0  0.12554  0.92388  0.13336  1.0000
  N   N15       1.0  0.14966  0.97378  0.26741  1.0000
  C   C125      1.0  0.09916  0.92423  0.33998  1.0000
  C   C126      1.0  0.40617  0.85688  0.16712  1.0000
  C   C127      1.0  0.41973  0.85792  0.25954  1.0000
  H   H76       1.0  0.42633  0.88044  0.12938  1.0000
  H   H77       1.0  0.38066  0.85718  0.16612  1.0000
  H   H78       1.0  0.40181  0.83222  0.13318  1.0000
  N   N16       1.0  0.45163  0.85781  0.26740  1.0000
  C   C128      1.0  0.40203  0.85866  0.34004  1.0000
  C   C129      1.0  0.23256  0.62729  0.16711  1.0000
  C   C130      1.0  0.23149  0.63980  0.25954  1.0000
  H   H79       1.0  0.20902  0.62392  0.12932  1.0000
  H   H80       1.0  0.23224  0.60147  0.16610  1.0000
  H   H81       1.0  0.25723  0.64759  0.13323  1.0000
  N   N17       1.0  0.23161  0.67181  0.26740  1.0000
  C   C131      1.0  0.23068  0.62132  0.34002  1.0000
  C   C132      1.0  0.46209  0.68323  0.16713  1.0000
  C   C133      1.0  0.44957  0.66965  0.25955  1.0000
  H   H82       1.0  0.46546  0.66306  0.12934  1.0000
  H   H83       1.0  0.48791  0.70873  0.16612  1.0000
  H   H84       1.0  0.44179  0.68760  0.13324  1.0000
  N   N18       1.0  0.41757  0.63776  0.26742  1.0000
  C   C134      1.0  0.46805  0.68733  0.34004  1.0000
  C   C135      1.0  0.03358  0.82268  0.34342  1.0000
  C   C136      1.0  0.50001  0.82283  0.34387  1.0000
  C   C137      1.0  0.50002  0.85638  0.34491  1.0000
  C   C138      1.0  0.03351  0.88933  0.34425  1.0000
  C   C139      1.0  0.06703  0.88994  0.34289  1.0000
  C   C140      1.0  0.06711  0.85643  0.34300  1.0000
  C   C141      1.0  0.46725  0.78904  0.34356  1.0000
  C   C142      1.0  0.09991  0.85548  0.34289  1.0000
  H   H85       1.0  0.03349  0.91349  0.34431  1.0000
  C   C143      1.0  0.03361  0.78889  0.34344  1.0000
  C   C144      1.0  0.50008  0.75514  0.34306  1.0000
  C   C145      1.0  0.50016  0.72163  0.34298  1.0000
  C   C146      1.0  0.03369  0.72224  0.34436  1.0000
  C   C147      1.0  0.06718  0.75520  0.34497  1.0000
  C   C148      1.0  0.06718  0.78875  0.34387  1.0000
  C   C149      1.0  0.46729  0.75610  0.34293  1.0000
  H   H86       1.0  0.03372  0.69809  0.34445  1.0000
  C   C150      1.0  0.09994  0.82254  0.34354  1.0000
  H   H87       1.0  0.44263  0.73265  0.34292  1.0000
  H   H88       1.0  0.44257  0.78778  0.34374  1.0000
  H   H89       1.0  0.12462  0.82379  0.34371  1.0000
  H   H90       1.0  0.12456  0.87892  0.34285  1.0000
  C   C151      1.0  0.09937  0.75313  0.34699  1.0000
  C   C152      1.0  0.11747  0.75320  0.42738  1.0000
  C   C153      1.0  0.10378  0.75407  0.51847  1.0000
  H   H91       1.0  0.10178  0.77855  0.52634  1.0000
  H   H92       1.0  0.12189  0.75408  0.57075  1.0000
  H   H93       1.0  0.07696  0.73024  0.52824  1.0000
  N   N19       1.0  0.14940  0.75315  0.41960  1.0000
  C   C154      1.0  0.33627  0.92422  0.34698  1.0000
  C   C155      1.0  0.33613  0.94222  0.42737  1.0000
  C   C156      1.0  0.33525  0.92766  0.51845  1.0000
  H   H94       1.0  0.31077  0.90117  0.52629  1.0000
  H   H95       1.0  0.33521  0.94574  0.57073  1.0000
  H   H96       1.0  0.35909  0.92468  0.52827  1.0000
  N   N20       1.0  0.33618  0.97420  0.41958  1.0000
  C   C157      1.0  0.16516  0.99002  0.34699  1.0000
  C   C158      1.0  0.14715  0.97188  0.42738  1.0000
  C   C159      1.0  0.16171  0.98557  0.51846  1.0000
  H   H97       1.0  0.18820  0.98758  0.52631  1.0000
  H   H98       1.0  0.14363  0.96745  0.57074  1.0000
  H   H99       1.0  0.16468  0.51238  0.52826  1.0000
  N   N21       1.0  0.11518  0.93995  0.41960  1.0000
  C   C160      1.0  0.46784  0.85847  0.34697  1.0000
  C   C161      1.0  0.44973  0.85837  0.42738  1.0000
  C   C162      1.0  0.46347  0.85758  0.51845  1.0000
  H   H100      1.0  0.46552  0.83312  0.52639  1.0000
  H   H101      1.0  0.44537  0.85756  0.57076  1.0000
  H   H102      1.0  0.49028  0.88144  0.52812  1.0000
  N   N22       1.0  0.41779  0.85838  0.41964  1.0000
  C   C163      1.0  0.23091  0.68734  0.34698  1.0000
  C   C164      1.0  0.23100  0.66932  0.42738  1.0000
  C   C165      1.0  0.23180  0.68386  0.51845  1.0000
  H   H103      1.0  0.25626  0.71035  0.52640  1.0000
  H   H104      1.0  0.23181  0.66576  0.57075  1.0000
  H   H105      1.0  0.20794  0.68681  0.52814  1.0000
  N   N23       1.0  0.23097  0.63735  0.41962  1.0000
  C   C166      1.0  0.40204  0.62154  0.34700  1.0000
  C   C167      1.0  0.42004  0.63965  0.42740  1.0000
  C   C168      1.0  0.40551  0.62592  0.51847  1.0000
  H   H106      1.0  0.37901  0.62388  0.52640  1.0000
  H   H107      1.0  0.42360  0.64403  0.57077  1.0000
  H   H108      1.0  0.40256  0.59911  0.52816  1.0000
  N   N24       1.0  0.45201  0.67159  0.41964  1.0000
  C   C169      1.0  0.76669  0.28886  0.34342  1.0000
  C   C170      1.0  0.76654  0.25515  0.34387  1.0000
  C   C171      1.0  0.73300  0.22160  0.34494  1.0000
  C   C172      1.0  0.70004  0.22214  0.34429  1.0000
  C   C173      1.0  0.69943  0.25506  0.34290  1.0000
  C   C174      1.0  0.73294  0.28864  0.34300  1.0000
  C   C175      1.0  0.80033  0.25618  0.34356  1.0000
  C   C176      1.0  0.73390  0.32240  0.34288  1.0000
  H   H109      1.0  0.67589  0.19796  0.34438  1.0000
  C   C177      1.0  0.80048  0.32269  0.34343  1.0000
  C   C178      1.0  0.83423  0.32291  0.34305  1.0000
  C   C179      1.0  0.86774  0.35649  0.34296  1.0000
  C   C180      1.0  0.86713  0.38941  0.34430  1.0000
  C   C181      1.0  0.83418  0.38995  0.34495  1.0000
  C   C182      1.0  0.80063  0.35640  0.34386  1.0000
  C   C183      1.0  0.83328  0.28915  0.34294  1.0000
  H   H110      1.0  0.89129  0.41359  0.34440  1.0000
  C   C184      1.0  0.76684  0.35537  0.34352  1.0000
  H   H111      1.0  0.85673  0.28795  0.34291  1.0000
  H   H112      1.0  0.80159  0.23276  0.34374  1.0000
  H   H113      1.0  0.76558  0.37879  0.34370  1.0000
  H   H114      1.0  0.71045  0.32360  0.34284  1.0000
  C   C185      1.0  0.80051  0.05580  0.34342  1.0000
  C   C186      1.0  0.83422  0.08936  0.34387  1.0000
  C   C187      1.0  0.86777  0.08936  0.34494  1.0000
  C   C188      1.0  0.86723  0.05587  0.34426  1.0000
  C   C189      1.0  0.83431  0.02234  0.34288  1.0000
  C   C190      1.0  0.80073  0.02227  0.34299  1.0000
  C   C191      1.0  0.83319  0.12212  0.34357  1.0000
  C   C192      1.0  0.76697  0.48947  0.34287  1.0000
  H   H115      1.0  0.89141  0.05589  0.34435  1.0000
  C   C193      1.0  0.76668  0.05576  0.34344  1.0000
  C   C194      1.0  0.76646  0.08929  0.34305  1.0000
  C   C195      1.0  0.73287  0.08921  0.34296  1.0000
  C   C196      1.0  0.69996  0.05569  0.34432  1.0000
  C   C197      1.0  0.69942  0.02219  0.34497  1.0000
  C   C198      1.0  0.73297  0.02219  0.34387  1.0000
  C   C199      1.0  0.80021  0.12209  0.34293  1.0000
  H   H116      1.0  0.67577  0.05565  0.34442  1.0000
  C   C200      1.0  0.73400  0.48943  0.34354  1.0000
  H   H117      1.0  0.80142  0.14674  0.34292  1.0000
  H   H118      1.0  0.85661  0.14680  0.34375  1.0000
  H   H119      1.0  0.71058  0.46475  0.34371  1.0000
  H   H120      1.0  0.76577  0.46481  0.34283  1.0000
  C   C201      1.0  0.66113  0.25496  0.16708  1.0000
  C   C202      1.0  0.64751  0.25378  0.25951  1.0000
  H   H121      1.0  0.64099  0.23148  0.12910  1.0000
  H   H122      1.0  0.68663  0.25463  0.16605  1.0000
  H   H123      1.0  0.66554  0.27969  0.13342  1.0000
  N   N25       1.0  0.61561  0.25388  0.26741  1.0000
  C   C203      1.0  0.66514  0.25287  0.33998  1.0000
  C   C204      1.0  0.83441  0.48413  0.16706  1.0000
  C   C205      1.0  0.83560  0.47169  0.25950  1.0000
  H   H124      1.0  0.85789  0.48747  0.12908  1.0000
  H   H125      1.0  0.83473  0.00995  0.16603  1.0000
  H   H126      1.0  0.80968  0.46380  0.13341  1.0000
  N   N26       1.0  0.83551  0.43970  0.26740  1.0000
  C   C206      1.0  0.83650  0.49023  0.33996  1.0000
  C   C207      1.0  0.60521  0.42827  0.16707  1.0000
  C   C208      1.0  0.61766  0.44188  0.25950  1.0000
  H   H127      1.0  0.60186  0.44841  0.12913  1.0000
  H   H128      1.0  0.57939  0.40276  0.16604  1.0000
  H   H129      1.0  0.62554  0.42388  0.13336  1.0000
  N   N27       1.0  0.64966  0.47378  0.26741  1.0000
  C   C209      1.0  0.59916  0.42423  0.33998  1.0000
  C   C210      1.0  0.90617  0.35688  0.16712  1.0000
  C   C211      1.0  0.91974  0.35792  0.25954  1.0000
  H   H130      1.0  0.92633  0.38044  0.12938  1.0000
  H   H131      1.0  0.88066  0.35718  0.16612  1.0000
  H   H132      1.0  0.90182  0.33222  0.13318  1.0000
  N   N28       1.0  0.95163  0.35781  0.26740  1.0000
  C   C212      1.0  0.90204  0.35866  0.34004  1.0000
  C   C213      1.0  0.73256  0.12729  0.16711  1.0000
  C   C214      1.0  0.73150  0.13980  0.25954  1.0000
  H   H133      1.0  0.70902  0.12392  0.12932  1.0000
  H   H134      1.0  0.73224  0.10147  0.16610  1.0000
  H   H135      1.0  0.75723  0.14759  0.13323  1.0000
  N   N29       1.0  0.73161  0.17181  0.26740  1.0000
  C   C215      1.0  0.73068  0.12132  0.34002  1.0000
  C   C216      1.0  0.96209  0.18323  0.16713  1.0000
  C   C217      1.0  0.94958  0.16965  0.25955  1.0000
  H   H136      1.0  0.96547  0.16306  0.12934  1.0000
  H   H137      1.0  0.98791  0.20873  0.16612  1.0000
  H   H138      1.0  0.94179  0.18760  0.13324  1.0000
  N   N30       1.0  0.91757  0.13776  0.26742  1.0000
  C   C218      1.0  0.96805  0.18733  0.34004  1.0000
  C   C219      1.0  0.53358  0.32268  0.34342  1.0000
  C   C220      1.0  0.00001  0.32283  0.34387  1.0000
  C   C221      1.0  0.00002  0.35638  0.34491  1.0000
  C   C222      1.0  0.53351  0.38933  0.34425  1.0000
  C   C223      1.0  0.56703  0.38994  0.34289  1.0000
  C   C224      1.0  0.56711  0.35643  0.34300  1.0000
  C   C225      1.0  0.96725  0.28904  0.34356  1.0000
  C   C226      1.0  0.59991  0.35547  0.34289  1.0000
  H   H139      1.0  0.53349  0.41349  0.34431  1.0000
  C   C227      1.0  0.53361  0.28889  0.34344  1.0000
  C   C228      1.0  0.00008  0.25514  0.34306  1.0000
  C   C229      1.0  0.00016  0.22163  0.34298  1.0000
  C   C230      1.0  0.53369  0.22224  0.34436  1.0000
  C   C231      1.0  0.56718  0.25520  0.34497  1.0000
  C   C232      1.0  0.56718  0.28875  0.34387  1.0000
  C   C233      1.0  0.96729  0.25609  0.34293  1.0000
  H   H140      1.0  0.53372  0.19809  0.34445  1.0000
  C   C234      1.0  0.59994  0.32253  0.34354  1.0000
  H   H141      1.0  0.94263  0.23265  0.34292  1.0000
  H   H142      1.0  0.94257  0.28778  0.34374  1.0000
  H   H143      1.0  0.62462  0.32379  0.34371  1.0000
  H   H144      1.0  0.62456  0.37892  0.34285  1.0000
  C   C235      1.0  0.59937  0.25313  0.34699  1.0000
  C   C236      1.0  0.61747  0.25320  0.42738  1.0000
  C   C237      1.0  0.60378  0.25407  0.51847  1.0000
  H   H145      1.0  0.60178  0.27855  0.52634  1.0000
  H   H146      1.0  0.62189  0.25408  0.57075  1.0000
  H   H147      1.0  0.57696  0.23024  0.52824  1.0000
  N   N31       1.0  0.64940  0.25315  0.41960  1.0000
  C   C238      1.0  0.83627  0.42422  0.34698  1.0000
  C   C239      1.0  0.83613  0.44222  0.42737  1.0000
  C   C240      1.0  0.83525  0.42766  0.51845  1.0000
  H   H148      1.0  0.81078  0.40117  0.52629  1.0000
  H   H149      1.0  0.83521  0.44574  0.57073  1.0000
  H   H150      1.0  0.85909  0.42468  0.52827  1.0000
  N   N32       1.0  0.83618  0.47420  0.41958  1.0000
  C   C241      1.0  0.66516  0.49002  0.34699  1.0000
  C   C242      1.0  0.64715  0.47188  0.42738  1.0000
  C   C243      1.0  0.66172  0.48557  0.51846  1.0000
  H   H151      1.0  0.68820  0.48759  0.52631  1.0000
  H   H152      1.0  0.64363  0.46745  0.57074  1.0000
  H   H153      1.0  0.66469  0.01238  0.52826  1.0000
  N   N33       1.0  0.61518  0.43996  0.41960  1.0000
  C   C244      1.0  0.96784  0.35847  0.34697  1.0000
  C   C245      1.0  0.94973  0.35836  0.42738  1.0000
  C   C246      1.0  0.96347  0.35758  0.51845  1.0000
  H   H154      1.0  0.96552  0.33312  0.52639  1.0000
  H   H155      1.0  0.94537  0.35756  0.57076  1.0000
  H   H156      1.0  0.99028  0.38144  0.52812  1.0000
  N   N34       1.0  0.91779  0.35839  0.41964  1.0000
  C   C247      1.0  0.73091  0.18734  0.34698  1.0000
  C   C248      1.0  0.73100  0.16932  0.42738  1.0000
  C   C249      1.0  0.73180  0.18386  0.51845  1.0000
  H   H157      1.0  0.75626  0.21035  0.52640  1.0000
  H   H158      1.0  0.73181  0.16576  0.57075  1.0000
  H   H159      1.0  0.70794  0.18681  0.52814  1.0000
  N   N35       1.0  0.73097  0.13735  0.41962  1.0000
  C   C250      1.0  0.90204  0.12154  0.34700  1.0000
  C   C251      1.0  0.92004  0.13965  0.42740  1.0000
  C   C252      1.0  0.90551  0.12592  0.51847  1.0000
  H   H160      1.0  0.87901  0.12388  0.52640  1.0000
  H   H161      1.0  0.92360  0.14403  0.57077  1.0000
  H   H162      1.0  0.90256  0.09911  0.52816  1.0000
  N   N36       1.0  0.95201  0.17159  0.41964  1.0000
  C   C253      1.0  0.76669  0.78886  0.34342  1.0000
  C   C254      1.0  0.76655  0.75515  0.34387  1.0000
  C   C255      1.0  0.73300  0.72160  0.34494  1.0000
  C   C256      1.0  0.70004  0.72214  0.34429  1.0000
  C   C257      1.0  0.69943  0.75506  0.34290  1.0000
  C   C258      1.0  0.73294  0.78864  0.34300  1.0000
  C   C259      1.0  0.80033  0.75618  0.34356  1.0000
  C   C260      1.0  0.73390  0.82240  0.34288  1.0000
  H   H163      1.0  0.67589  0.69796  0.34438  1.0000
  C   C261      1.0  0.80048  0.82269  0.34343  1.0000
  C   C262      1.0  0.83423  0.82291  0.34305  1.0000
  C   C263      1.0  0.86775  0.85649  0.34296  1.0000
  C   C264      1.0  0.86713  0.88941  0.34430  1.0000
  C   C265      1.0  0.83418  0.88995  0.34495  1.0000
  C   C266      1.0  0.80063  0.85640  0.34386  1.0000
  C   C267      1.0  0.83328  0.78916  0.34294  1.0000
  H   H164      1.0  0.89129  0.91359  0.34440  1.0000
  C   C268      1.0  0.76684  0.85537  0.34352  1.0000
  H   H165      1.0  0.85672  0.78795  0.34291  1.0000
  H   H166      1.0  0.80159  0.73276  0.34374  1.0000
  H   H167      1.0  0.76558  0.87880  0.34370  1.0000
  H   H168      1.0  0.71045  0.82360  0.34284  1.0000
  C   C269      1.0  0.80051  0.55580  0.34342  1.0000
  C   C270      1.0  0.83422  0.58937  0.34387  1.0000
  C   C271      1.0  0.86777  0.58936  0.34494  1.0000
  C   C272      1.0  0.86723  0.55587  0.34426  1.0000
  C   C273      1.0  0.83431  0.52234  0.34288  1.0000
  C   C274      1.0  0.80073  0.52227  0.34299  1.0000
  C   C275      1.0  0.83319  0.62213  0.34357  1.0000
  C   C276      1.0  0.76698  0.98947  0.34287  1.0000
  H   H169      1.0  0.89141  0.55589  0.34435  1.0000
  C   C277      1.0  0.76668  0.55576  0.34344  1.0000
  C   C278      1.0  0.76646  0.58929  0.34305  1.0000
  C   C279      1.0  0.73287  0.58921  0.34296  1.0000
  C   C280      1.0  0.69996  0.55569  0.34432  1.0000
  C   C281      1.0  0.69943  0.52219  0.34497  1.0000
  C   C282      1.0  0.73297  0.52219  0.34387  1.0000
  C   C283      1.0  0.80021  0.62209  0.34293  1.0000
  H   H170      1.0  0.67578  0.55565  0.34442  1.0000
  C   C284      1.0  0.73400  0.98943  0.34354  1.0000
  H   H171      1.0  0.80142  0.64674  0.34292  1.0000
  H   H172      1.0  0.85661  0.64680  0.34375  1.0000
  H   H173      1.0  0.71058  0.96476  0.34371  1.0000
  H   H174      1.0  0.76577  0.96481  0.34283  1.0000
  C   C285      1.0  0.66114  0.75496  0.16708  1.0000
  C   C286      1.0  0.64751  0.75378  0.25951  1.0000
  H   H175      1.0  0.64099  0.73148  0.12910  1.0000
  H   H176      1.0  0.68663  0.75463  0.16605  1.0000
  H   H177      1.0  0.66555  0.77969  0.13342  1.0000
  N   N37       1.0  0.61562  0.75388  0.26741  1.0000
  C   C287      1.0  0.66514  0.75287  0.33998  1.0000
  C   C288      1.0  0.83441  0.98413  0.16706  1.0000
  C   C289      1.0  0.83560  0.97169  0.25950  1.0000
  H   H178      1.0  0.85789  0.98747  0.12908  1.0000
  H   H179      1.0  0.83473  0.50995  0.16603  1.0000
  H   H180      1.0  0.80969  0.96380  0.13341  1.0000
  N   N38       1.0  0.83551  0.93970  0.26740  1.0000
  C   C290      1.0  0.83650  0.99023  0.33996  1.0000
  C   C291      1.0  0.60521  0.92826  0.16707  1.0000
  C   C292      1.0  0.61766  0.94188  0.25950  1.0000
  H   H181      1.0  0.60186  0.94841  0.12913  1.0000
  H   H182      1.0  0.57939  0.90276  0.16604  1.0000
  H   H183      1.0  0.62554  0.92388  0.13336  1.0000
  N   N39       1.0  0.64966  0.97378  0.26741  1.0000
  C   C293      1.0  0.59916  0.92423  0.33998  1.0000
  C   C294      1.0  0.90617  0.85688  0.16712  1.0000
  C   C295      1.0  0.91973  0.85792  0.25954  1.0000
  H   H184      1.0  0.92633  0.88044  0.12938  1.0000
  H   H185      1.0  0.88066  0.85718  0.16612  1.0000
  H   H186      1.0  0.90182  0.83222  0.13318  1.0000
  N   N40       1.0  0.95163  0.85781  0.26740  1.0000
  C   C296      1.0  0.90203  0.85866  0.34004  1.0000
  C   C297      1.0  0.73256  0.62729  0.16711  1.0000
  C   C298      1.0  0.73149  0.63980  0.25954  1.0000
  H   H187      1.0  0.70902  0.62392  0.12932  1.0000
  H   H188      1.0  0.73224  0.60147  0.16610  1.0000
  H   H189      1.0  0.75723  0.64759  0.13323  1.0000
  N   N41       1.0  0.73161  0.67181  0.26740  1.0000
  C   C299      1.0  0.73068  0.62132  0.34002  1.0000
  C   C300      1.0  0.96209  0.68323  0.16713  1.0000
  C   C301      1.0  0.94958  0.66965  0.25955  1.0000
  H   H190      1.0  0.96546  0.66306  0.12934  1.0000
  H   H191      1.0  0.98791  0.70873  0.16612  1.0000
  H   H192      1.0  0.94179  0.68760  0.13324  1.0000
  N   N42       1.0  0.91757  0.63776  0.26742  1.0000
  C   C302      1.0  0.96805  0.68733  0.34004  1.0000
  C   C303      1.0  0.53358  0.82268  0.34342  1.0000
  C   C304      1.0  0.00001  0.82283  0.34387  1.0000
  C   C305      1.0  0.00002  0.85638  0.34491  1.0000
  C   C306      1.0  0.53351  0.88933  0.34425  1.0000
  C   C307      1.0  0.56703  0.88994  0.34289  1.0000
  C   C308      1.0  0.56711  0.85643  0.34300  1.0000
  C   C309      1.0  0.96725  0.78904  0.34356  1.0000
  C   C310      1.0  0.59991  0.85548  0.34289  1.0000
  H   H193      1.0  0.53349  0.91349  0.34431  1.0000
  C   C311      1.0  0.53361  0.78889  0.34344  1.0000
  C   C312      1.0  0.00008  0.75514  0.34306  1.0000
  C   C313      1.0  0.00016  0.72163  0.34298  1.0000
  C   C314      1.0  0.53369  0.72224  0.34436  1.0000
  C   C315      1.0  0.56718  0.75520  0.34497  1.0000
  C   C316      1.0  0.56718  0.78875  0.34387  1.0000
  C   C317      1.0  0.96729  0.75610  0.34293  1.0000
  H   H194      1.0  0.53372  0.69809  0.34445  1.0000
  C   C318      1.0  0.59994  0.82254  0.34354  1.0000
  H   H195      1.0  0.94263  0.73265  0.34292  1.0000
  H   H196      1.0  0.94257  0.78778  0.34374  1.0000
  H   H197      1.0  0.62462  0.82379  0.34371  1.0000
  H   H198      1.0  0.62456  0.87892  0.34285  1.0000
  C   C319      1.0  0.59937  0.75313  0.34699  1.0000
  C   C320      1.0  0.61747  0.75320  0.42738  1.0000
  C   C321      1.0  0.60378  0.75407  0.51847  1.0000
  H   H199      1.0  0.60178  0.77855  0.52634  1.0000
  H   H200      1.0  0.62189  0.75408  0.57075  1.0000
  H   H201      1.0  0.57696  0.73024  0.52824  1.0000
  N   N43       1.0  0.64940  0.75315  0.41960  1.0000
  C   C322      1.0  0.83627  0.92422  0.34698  1.0000
  C   C323      1.0  0.83613  0.94222  0.42737  1.0000
  C   C324      1.0  0.83525  0.92766  0.51845  1.0000
  H   H202      1.0  0.81077  0.90117  0.52629  1.0000
  H   H203      1.0  0.83521  0.94574  0.57073  1.0000
  H   H204      1.0  0.85909  0.92468  0.52827  1.0000
  N   N44       1.0  0.83619  0.97420  0.41958  1.0000
  C   C325      1.0  0.66516  0.99002  0.34699  1.0000
  C   C326      1.0  0.64716  0.97188  0.42738  1.0000
  C   C327      1.0  0.66171  0.98557  0.51846  1.0000
  H   H205      1.0  0.68820  0.98758  0.52631  1.0000
  H   H206      1.0  0.64363  0.96745  0.57074  1.0000
  H   H207      1.0  0.66469  0.51238  0.52826  1.0000
  N   N45       1.0  0.61518  0.93995  0.41960  1.0000
  C   C328      1.0  0.96784  0.85847  0.34697  1.0000
  C   C329      1.0  0.94973  0.85837  0.42738  1.0000
  C   C330      1.0  0.96347  0.85758  0.51845  1.0000
  H   H208      1.0  0.96552  0.83312  0.52639  1.0000
  H   H209      1.0  0.94537  0.85756  0.57076  1.0000
  H   H210      1.0  0.99028  0.88144  0.52812  1.0000
  N   N46       1.0  0.91779  0.85838  0.41964  1.0000
  C   C331      1.0  0.73091  0.68734  0.34698  1.0000
  C   C332      1.0  0.73100  0.66932  0.42738  1.0000
  C   C333      1.0  0.73180  0.68386  0.51845  1.0000
  H   H211      1.0  0.75626  0.71035  0.52640  1.0000
  H   H212      1.0  0.73181  0.66576  0.57075  1.0000
  H   H213      1.0  0.70794  0.68681  0.52814  1.0000
  N   N47       1.0  0.73097  0.63735  0.41962  1.0000
  C   C334      1.0  0.90204  0.62154  0.34700  1.0000
  C   C335      1.0  0.92005  0.63965  0.42740  1.0000
  C   C336      1.0  0.90551  0.62592  0.51847  1.0000
  H   H214      1.0  0.87901  0.62388  0.52640  1.0000
  H   H215      1.0  0.92360  0.64403  0.57077  1.0000
  H   H216      1.0  0.90256  0.59911  0.52816  1.0000
  N   N48       1.0  0.95201  0.67159  0.41964  1.0000
