data_image0
_chemical_formula_structural       C2HNHCHCNO2C7H6N2C6H6N2C6H6N2C6H6N2C6H6N2C6H6N2C3HNH2CHC6H2NH2NO2CHC6H2NH2NO2CHC2HC4HNH2NO2CHC2HC4HNH2NO2CHC2HC4HNH2NO2CHC2HC4HNH2NO2CHC2HC4HNH2NO2CHC2HC4HNH2NO2CHC12H5CNC2NHN2C12H5CNC2NHN2C12H5CNC2NHN2C12H5CNC2NHN2C12H5CNC2NHN2C12H5CNC2NHN2HC4HNO2CHC2HC4HNH2NO2CHC2HC4HNH2NO2CHC6H2NH2NO2CHC6H2NH2NO2CHC6H2NH2NO2CHC6H2NH2NO2CHC6H2NH2NO2CHC6H2NH2NO2CH
_chemical_formula_sum              "C252 H162 N72 O36"
_cell_length_a       91.2523
_cell_length_b       91.2522
_cell_length_c       14.986
_cell_angle_alpha    90
_cell_angle_beta     90
_cell_angle_gamma    120

_space_group_name_H-M_alt    "P 1"
_space_group_IT_number       1

loop_
  _space_group_symop_operation_xyz
  'x, y, z'

loop_
  _atom_site_type_symbol
  _atom_site_label
  _atom_site_symmetry_multiplicity
  _atom_site_fract_x
  _atom_site_fract_y
  _atom_site_fract_z
  _atom_site_occupancy
  C   C1        1.0  0.01669  0.50730  0.24564  1.0000
  C   C2        1.0  0.00976  0.50560  0.33186  1.0000
  H   H1        1.0  0.00887  0.50116  0.19283  1.0000
  N   N1        1.0  0.01483  0.51324  0.48973  1.0000
  H   H2        1.0  0.00286  0.50683  0.50399  1.0000
  C   C3        1.0  0.02066  0.51411  0.40511  1.0000
  H   H3        1.0  0.02251  0.51929  0.53873  1.0000
  C   C4        1.0  0.03427  0.51748  0.22988  1.0000
  N   N2        1.0  0.04105  0.51915  0.14295  1.0000
  O   O1        1.0  0.03509  0.52550  0.08986  1.0000
  O   O2        1.0  0.03813  0.50511  0.11255  1.0000
  C   C5        1.0  0.03825  0.52414  0.38896  1.0000
  C   C6        1.0  0.17993  0.61628  0.33353  1.0000
  C   C7        1.0  0.09925  0.56205  0.32148  1.0000
  C   C8        1.0  0.11706  0.57110  0.32317  1.0000
  C   C9        1.0  0.17270  0.62613  0.36142  1.0000
  C   C10       1.0  0.18255  0.64392  0.36677  1.0000
  C   C11       1.0  0.19973  0.65229  0.34158  1.0000
  H   H4        1.0  0.09292  0.56853  0.31182  1.0000
  H   H5        1.0  0.12304  0.58389  0.31311  1.0000
  H   H6        1.0  0.16035  0.62042  0.38170  1.0000
  H   H7        1.0  0.17720  0.65070  0.39022  1.0000
  H   H8        1.0  0.17703  0.52552  0.36494  1.0000
  H   H9        1.0  0.16030  0.53900  0.36302  1.0000
  N   N3        1.0  0.15335  0.58921  0.33607  1.0000
  N   N4        1.0  0.20969  0.66878  0.35334  1.0000
  C   C12       1.0  0.38485  0.56383  0.33369  1.0000
  C   C13       1.0  0.43910  0.53741  0.32152  1.0000
  C   C14       1.0  0.43005  0.54616  0.32322  1.0000
  C   C15       1.0  0.37501  0.54674  0.36132  1.0000
  C   C16       1.0  0.35722  0.53878  0.36664  1.0000
  C   C17       1.0  0.34884  0.54759  0.34161  1.0000
  H   H10       1.0  0.43262  0.52459  0.31189  1.0000
  H   H11       1.0  0.41726  0.53935  0.31317  1.0000
  H   H12       1.0  0.38073  0.54009  0.38142  1.0000
  H   H13       1.0  0.35045  0.52663  0.38983  1.0000
  H   H14       1.0  0.47561  0.65171  0.36485  1.0000
  H   H15       1.0  0.46213  0.62150  0.36297  1.0000
  N   N5        1.0  0.41193  0.56432  0.33616  1.0000
  N   N6        1.0  0.33235  0.54104  0.35328  1.0000
  C   C18       1.0  0.43731  0.82122  0.33374  1.0000
  C   C19       1.0  0.46375  0.90189  0.32151  1.0000
  C   C20       1.0  0.45499  0.88409  0.32321  1.0000
  C   C21       1.0  0.45441  0.82848  0.36130  1.0000
  C   C22       1.0  0.46236  0.81864  0.36663  1.0000
  C   C23       1.0  0.45355  0.80144  0.34169  1.0000
  H   H16       1.0  0.47656  0.90822  0.31189  1.0000
  H   H17       1.0  0.46180  0.87811  0.31315  1.0000
  H   H18       1.0  0.46105  0.84083  0.38138  1.0000
  H   H19       1.0  0.47451  0.82401  0.38979  1.0000
  H   H20       1.0  0.34945  0.82412  0.36477  1.0000
  H   H21       1.0  0.37965  0.84085  0.36295  1.0000
  N   N7        1.0  0.43682  0.84780  0.33618  1.0000
  N   N8        1.0  0.46010  0.79150  0.35335  1.0000
  C   C24       1.0  0.82099  0.38408  0.33672  1.0000
  C   C25       1.0  0.90188  0.43762  0.35102  1.0000
  C   C26       1.0  0.88407  0.42877  0.35100  1.0000
  C   C27       1.0  0.82832  0.37411  0.36073  1.0000
  C   C28       1.0  0.81841  0.35633  0.36646  1.0000
  C   C29       1.0  0.80102  0.34808  0.34580  1.0000
  H   H22       1.0  0.90810  0.43100  0.35926  1.0000
  H   H23       1.0  0.87797  0.41596  0.36059  1.0000
  H   H24       1.0  0.84085  0.37973  0.37747  1.0000
  H   H25       1.0  0.82389  0.34947  0.38662  1.0000
  H   H26       1.0  0.82481  0.47525  0.36221  1.0000
  H   H27       1.0  0.84136  0.46158  0.36052  1.0000
  N   N9        1.0  0.84776  0.41102  0.33796  1.0000
  N   N10       1.0  0.79104  0.33159  0.35691  1.0000
  C   C30       1.0  0.61708  0.43711  0.33682  1.0000
  C   C31       1.0  0.56356  0.46450  0.35088  1.0000
  C   C32       1.0  0.57240  0.45553  0.35094  1.0000
  C   C33       1.0  0.62705  0.45442  0.36053  1.0000
  C   C34       1.0  0.64483  0.46229  0.36625  1.0000
  C   C35       1.0  0.65307  0.45313  0.34590  1.0000
  H   H28       1.0  0.57019  0.47734  0.35921  1.0000
  H   H29       1.0  0.58521  0.46224  0.36059  1.0000
  H   H30       1.0  0.62144  0.46135  0.37706  1.0000
  H   H31       1.0  0.65170  0.47464  0.38622  1.0000
  H   H32       1.0  0.52586  0.34979  0.36205  1.0000
  H   H33       1.0  0.53955  0.38002  0.36045  1.0000
  N   N11       1.0  0.59015  0.43697  0.33797  1.0000
  N   N12       1.0  0.66956  0.45963  0.35700  1.0000
  C   C36       1.0  0.56403  0.18014  0.33604  1.0000
  C   C37       1.0  0.53669  0.09926  0.35106  1.0000
  C   C38       1.0  0.54566  0.11707  0.35107  1.0000
  C   C39       1.0  0.54683  0.17289  0.36181  1.0000
  C   C40       1.0  0.53899  0.18283  0.36756  1.0000
  C   C41       1.0  0.54803  0.20014  0.34495  1.0000
  H   H34       1.0  0.52385  0.09305  0.35930  1.0000
  H   H35       1.0  0.53894  0.12317  0.36061  1.0000
  H   H36       1.0  0.54000  0.16044  0.38006  1.0000
  H   H37       1.0  0.52674  0.17744  0.38921  1.0000
  H   H38       1.0  0.65139  0.17634  0.36218  1.0000
  H   H39       1.0  0.62116  0.15979  0.36054  1.0000
  N   N13       1.0  0.56420  0.15337  0.33778  1.0000
  N   N14       1.0  0.54159  0.21016  0.35645  1.0000
  C   C42       1.0  0.04521  0.52597  0.30257  1.0000
  C   C43       1.0  0.98047  0.50093  0.31851  1.0000
  C   C44       1.0  0.96293  0.48977  0.33113  1.0000
  H   H40       1.0  0.95472  0.49396  0.31551  1.0000
  N   N15       1.0  0.98571  0.51671  0.28574  1.0000
  H   H41       1.0  0.99761  0.52492  0.27721  1.0000
  H   H42       1.0  0.97766  0.52036  0.27056  1.0000
  C   C45       1.0  0.06239  0.53673  0.28959  1.0000
  H   H43       1.0  0.06608  0.54548  0.24198  1.0000
  C   C46       1.0  0.47519  0.51945  0.30260  1.0000
  C   C47       1.0  0.48368  0.51701  0.22990  1.0000
  C   C48       1.0  0.49387  0.50962  0.24565  1.0000
  C   C49       1.0  0.49557  0.50439  0.33186  1.0000
  C   C50       1.0  0.50024  0.47978  0.31848  1.0000
  C   C51       1.0  0.51141  0.47340  0.33108  1.0000
  H   H44       1.0  0.50722  0.46100  0.31545  1.0000
  H   H45       1.0  0.50001  0.50795  0.19284  1.0000
  N   N16       1.0  0.48446  0.46923  0.28573  1.0000
  H   H46       1.0  0.47625  0.47292  0.27721  1.0000
  H   H47       1.0  0.48082  0.45753  0.27054  1.0000
  N   N17       1.0  0.48201  0.52212  0.14297  1.0000
  O   O3        1.0  0.47566  0.50981  0.08988  1.0000
  O   O4        1.0  0.49605  0.53325  0.11258  1.0000
  C   C52       1.0  0.46442  0.52587  0.28963  1.0000
  H   H48       1.0  0.45568  0.52081  0.24204  1.0000
  C   C53       1.0  0.48171  0.95594  0.30264  1.0000
  C   C54       1.0  0.48416  0.96688  0.22995  1.0000
  C   C55       1.0  0.49155  0.98445  0.24571  1.0000
  C   C56       1.0  0.49678  0.99138  0.33192  1.0000
  C   C57       1.0  0.52140  0.02067  0.31860  1.0000
  C   C58       1.0  0.52778  0.03821  0.33124  1.0000
  H   H49       1.0  0.54018  0.04642  0.31564  1.0000
  H   H50       1.0  0.49323  0.99228  0.19291  1.0000
  N   N18       1.0  0.53194  0.01543  0.28585  1.0000
  H   H51       1.0  0.52826  0.00354  0.27731  1.0000
  H   H52       1.0  0.54365  0.02349  0.27068  1.0000
  N   N19       1.0  0.47905  0.96010  0.14302  1.0000
  O   O5        1.0  0.49136  0.96606  0.08993  1.0000
  O   O6        1.0  0.46792  0.96301  0.11263  1.0000
  C   C59       1.0  0.47530  0.93876  0.28965  1.0000
  H   H53       1.0  0.48035  0.93507  0.24205  1.0000
  C   C60       1.0  0.24838  0.52995  0.26054  1.0000
  C   C61       1.0  0.23271  0.52943  0.27016  1.0000
  H   H54       1.0  0.22773  0.53234  0.21619  1.0000
  C   C62       1.0  0.27192  0.52838  0.33482  1.0000
  C   C63       1.0  0.30480  0.53270  0.31229  1.0000
  C   C64       1.0  0.29046  0.51778  0.28079  1.0000
  C   C65       1.0  0.27416  0.51570  0.29366  1.0000
  H   H55       1.0  0.26386  0.50504  0.26921  1.0000
  N   N20       1.0  0.25627  0.53433  0.17974  1.0000
  H   H56       1.0  0.25123  0.53687  0.12907  1.0000
  H   H57       1.0  0.26717  0.53519  0.16975  1.0000
  N   N21       1.0  0.29270  0.50538  0.23598  1.0000
  O   O7        1.0  0.28719  0.50321  0.15739  1.0000
  O   O8        1.0  0.28531  0.49144  0.27625  1.0000
  C   C66       1.0  0.32109  0.53644  0.29168  1.0000
  H   H58       1.0  0.32439  0.53766  0.22758  1.0000
  C   C67       1.0  0.47119  0.71863  0.26052  1.0000
  C   C68       1.0  0.47170  0.70347  0.27015  1.0000
  H   H59       1.0  0.46879  0.69559  0.21618  1.0000
  C   C69       1.0  0.47276  0.74374  0.33481  1.0000
  C   C70       1.0  0.46845  0.77230  0.31231  1.0000
  C   C71       1.0  0.48336  0.77288  0.28082  1.0000
  C   C72       1.0  0.48544  0.75865  0.29366  1.0000
  H   H60       1.0  0.49610  0.75902  0.26921  1.0000
  N   N22       1.0  0.46680  0.72213  0.17972  1.0000
  H   H61       1.0  0.46426  0.71455  0.12906  1.0000
  H   H62       1.0  0.46595  0.73219  0.16973  1.0000
  N   N23       1.0  0.49577  0.78753  0.23602  1.0000
  O   O9        1.0  0.49794  0.78419  0.15743  1.0000
  O   O10       1.0  0.50971  0.79407  0.27630  1.0000
  C   C73       1.0  0.46471  0.78486  0.29173  1.0000
  H   H63       1.0  0.46350  0.78695  0.22764  1.0000
  C   C74       1.0  0.28251  0.75276  0.26054  1.0000
  C   C75       1.0  0.29767  0.76844  0.27011  1.0000
  H   H64       1.0  0.30555  0.77341  0.21612  1.0000
  C   C76       1.0  0.25741  0.72923  0.33492  1.0000
  C   C77       1.0  0.22885  0.69635  0.31245  1.0000
  C   C78       1.0  0.22827  0.71069  0.28087  1.0000
  C   C79       1.0  0.24249  0.72699  0.29372  1.0000
  H   H65       1.0  0.24213  0.73729  0.26921  1.0000
  N   N24       1.0  0.27901  0.74487  0.17978  1.0000
  H   H66       1.0  0.28658  0.74989  0.12910  1.0000
  H   H67       1.0  0.26896  0.73396  0.16983  1.0000
  N   N25       1.0  0.21363  0.70844  0.23601  1.0000
  O   O11       1.0  0.21698  0.71394  0.15741  1.0000
  O   O12       1.0  0.20708  0.71583  0.27622  1.0000
  C   C80       1.0  0.21631  0.68006  0.29183  1.0000
  H   H68       1.0  0.21413  0.67677  0.22773  1.0000
  C   C81       1.0  0.75353  0.47124  0.25899  1.0000
  C   C82       1.0  0.76920  0.47173  0.26791  1.0000
  H   H69       1.0  0.77412  0.46884  0.21359  1.0000
  C   C83       1.0  0.73005  0.47273  0.33453  1.0000
  C   C84       1.0  0.69714  0.46845  0.31427  1.0000
  C   C85       1.0  0.71143  0.48339  0.28266  1.0000
  C   C86       1.0  0.72776  0.48545  0.29436  1.0000
  H   H70       1.0  0.73802  0.49614  0.26992  1.0000
  N   N26       1.0  0.74557  0.46692  0.17837  1.0000
  H   H71       1.0  0.75056  0.46441  0.12735  1.0000
  H   H72       1.0  0.73466  0.46609  0.16886  1.0000
  N   N27       1.0  0.70914  0.49586  0.23895  1.0000
  O   O13       1.0  0.71452  0.49811  0.16008  1.0000
  O   O14       1.0  0.71661  0.50975  0.27963  1.0000
  C   C87       1.0  0.68080  0.46479  0.29509  1.0000
  H   H73       1.0  0.67748  0.46409  0.23124  1.0000
  C   C88       1.0  0.52993  0.28253  0.25922  1.0000
  C   C89       1.0  0.52942  0.29770  0.26802  1.0000
  H   H74       1.0  0.53232  0.30550  0.21369  1.0000
  C   C90       1.0  0.52842  0.25756  0.33489  1.0000
  C   C91       1.0  0.53279  0.22900  0.31431  1.0000
  C   C92       1.0  0.51786  0.22834  0.28243  1.0000
  C   C93       1.0  0.51575  0.24257  0.29432  1.0000
  H   H75       1.0  0.50508  0.24214  0.26961  1.0000
  N   N28       1.0  0.53430  0.27891  0.17870  1.0000
  H   H76       1.0  0.53682  0.28640  0.12768  1.0000
  H   H77       1.0  0.53515  0.26883  0.16928  1.0000
  N   N29       1.0  0.50545  0.21360  0.23822  1.0000
  O   O15       1.0  0.50327  0.21680  0.15936  1.0000
  O   O16       1.0  0.49152  0.20712  0.27854  1.0000
  C   C94       1.0  0.53653  0.21639  0.29478  1.0000
  H   H78       1.0  0.53718  0.21377  0.23085  1.0000
  C   C95       1.0  0.71866  0.24762  0.25894  1.0000
  C   C96       1.0  0.70348  0.23195  0.26782  1.0000
  H   H79       1.0  0.69569  0.22702  0.21347  1.0000
  C   C97       1.0  0.74362  0.27111  0.33454  1.0000
  C   C98       1.0  0.77224  0.30402  0.31424  1.0000
  C   C99       1.0  0.77289  0.28973  0.28263  1.0000
  C   C100      1.0  0.75863  0.27341  0.29437  1.0000
  H   H80       1.0  0.75906  0.26314  0.26993  1.0000
  N   N30       1.0  0.72231  0.25557  0.17831  1.0000
  H   H81       1.0  0.71483  0.25059  0.12727  1.0000
  H   H82       1.0  0.73239  0.26649  0.16883  1.0000
  N   N31       1.0  0.78765  0.29202  0.23889  1.0000
  O   O17       1.0  0.78452  0.28664  0.16002  1.0000
  O   O18       1.0  0.79408  0.28456  0.27956  1.0000
  C   C101      1.0  0.78491  0.32035  0.29498  1.0000
  H   H83       1.0  0.78749  0.32369  0.23112  1.0000
  C   C102      1.0  0.12647  0.56279  0.33762  1.0000
  C   C103      1.0  0.18056  0.56390  0.33711  1.0000
  C   C104      1.0  0.11726  0.54503  0.35131  1.0000
  C   C105      1.0  0.09944  0.53600  0.35063  1.0000
  C   C106      1.0  0.09023  0.54434  0.33423  1.0000
  C   C107      1.0  0.20700  0.64265  0.31253  1.0000
  C   C108      1.0  0.19724  0.62494  0.30855  1.0000
  C   C109      1.0  0.19830  0.57318  0.32282  1.0000
  C   C110      1.0  0.20809  0.56524  0.32377  1.0000
  C   C111      1.0  0.20055  0.54775  0.33995  1.0000
  C   C112      1.0  0.18288  0.53827  0.35393  1.0000
  C   C113      1.0  0.17304  0.54625  0.35226  1.0000
  H   H84       1.0  0.09322  0.52320  0.36129  1.0000
  H   H85       1.0  0.20309  0.61845  0.28802  1.0000
  H   H86       1.0  0.21957  0.64845  0.29642  1.0000
  H   H87       1.0  0.20442  0.58592  0.31082  1.0000
  H   H88       1.0  0.22086  0.57241  0.31293  1.0000
  C   C114      1.0  0.17086  0.57223  0.33664  1.0000
  N   N32       1.0  0.17879  0.58937  0.33459  1.0000
  C   C115      1.0  0.17053  0.59827  0.33419  1.0000
  C   C116      1.0  0.14454  0.57196  0.33782  1.0000
  N   N33       1.0  0.15365  0.56382  0.33828  1.0000
  H   H89       1.0  0.12340  0.53843  0.36289  1.0000
  N   N34       1.0  0.21087  0.54147  0.33901  1.0000
  N   N35       1.0  0.07342  0.53526  0.33618  1.0000
  C   C117      1.0  0.43835  0.56388  0.33766  1.0000
  C   C118      1.0  0.43723  0.61686  0.33719  1.0000
  C   C119      1.0  0.45611  0.57243  0.35132  1.0000
  C   C120      1.0  0.46515  0.56365  0.35065  1.0000
  C   C121      1.0  0.45681  0.54610  0.33430  1.0000
  C   C122      1.0  0.35847  0.56451  0.31283  1.0000
  C   C123      1.0  0.37619  0.57249  0.30890  1.0000
  C   C124      1.0  0.42795  0.62531  0.32296  1.0000
  C   C125      1.0  0.43589  0.64305  0.32388  1.0000
  C   C126      1.0  0.45338  0.65299  0.33999  1.0000
  C   C127      1.0  0.46286  0.64480  0.35392  1.0000
  C   C128      1.0  0.45488  0.62699  0.35225  1.0000
  H   H90       1.0  0.47795  0.57023  0.36129  1.0000
  H   H91       1.0  0.38267  0.58484  0.28854  1.0000
  H   H92       1.0  0.35267  0.57129  0.29684  1.0000
  H   H93       1.0  0.41520  0.61869  0.31102  1.0000
  H   H94       1.0  0.42871  0.64864  0.31309  1.0000
  C   C129      1.0  0.42890  0.59883  0.33672  1.0000
  N   N36       1.0  0.41176  0.58961  0.33471  1.0000
  C   C130      1.0  0.40287  0.57245  0.33431  1.0000
  C   C131      1.0  0.42918  0.57278  0.33786  1.0000
  N   N37       1.0  0.43732  0.59003  0.33833  1.0000
  H   H95       1.0  0.46272  0.58518  0.36287  1.0000
  N   N38       1.0  0.45966  0.66959  0.33903  1.0000
  N   N39       1.0  0.46589  0.53837  0.33622  1.0000
  C   C132      1.0  0.43727  0.87467  0.33766  1.0000
  C   C133      1.0  0.38429  0.82058  0.33713  1.0000
  C   C134      1.0  0.42873  0.88389  0.35132  1.0000
  C   C135      1.0  0.43751  0.90171  0.35066  1.0000
  C   C136      1.0  0.45506  0.91091  0.33432  1.0000
  C   C137      1.0  0.43661  0.79415  0.31303  1.0000
  C   C138      1.0  0.42865  0.80390  0.30902  1.0000
  C   C139      1.0  0.37583  0.80284  0.32286  1.0000
  C   C140      1.0  0.35810  0.79306  0.32375  1.0000
  C   C141      1.0  0.34815  0.80061  0.33983  1.0000
  C   C142      1.0  0.35635  0.81828  0.35383  1.0000
  C   C143      1.0  0.37417  0.82811  0.35218  1.0000
  H   H96       1.0  0.43093  0.90793  0.36131  1.0000
  H   H97       1.0  0.41629  0.79803  0.28870  1.0000
  H   H98       1.0  0.42984  0.78157  0.29699  1.0000
  H   H99       1.0  0.38245  0.79673  0.31093  1.0000
  H   H100      1.0  0.35250  0.78029  0.31293  1.0000
  C   C144      1.0  0.40232  0.83029  0.33670  1.0000
  N   N40       1.0  0.41154  0.82236  0.33473  1.0000
  C   C145      1.0  0.42869  0.83061  0.33436  1.0000
  C   C146      1.0  0.42837  0.85661  0.33787  1.0000
  N   N41       1.0  0.41112  0.84750  0.33831  1.0000
  H   H101      1.0  0.41597  0.87774  0.36289  1.0000
  N   N42       1.0  0.33155  0.79029  0.33886  1.0000
  N   N43       1.0  0.46279  0.92772  0.33624  1.0000
  C   C147      1.0  0.87480  0.43728  0.33819  1.0000
  C   C148      1.0  0.82103  0.43681  0.33287  1.0000
  C   C149      1.0  0.88417  0.45504  0.32460  1.0000
  C   C150      1.0  0.90198  0.46388  0.32362  1.0000
  C   C151      1.0  0.91105  0.45533  0.33810  1.0000
  C   C152      1.0  0.79362  0.35782  0.32093  1.0000
  C   C153      1.0  0.80346  0.37552  0.31629  1.0000
  C   C154      1.0  0.80333  0.42767  0.31738  1.0000
  C   C155      1.0  0.79364  0.43572  0.31820  1.0000
  C   C156      1.0  0.80127  0.45319  0.33539  1.0000
  C   C157      1.0  0.81892  0.46253  0.35028  1.0000
  C   C158      1.0  0.82865  0.45444  0.34867  1.0000
  H   H102      1.0  0.90831  0.47667  0.31294  1.0000
  H   H103      1.0  0.79751  0.38205  0.29854  1.0000
  H   H104      1.0  0.78093  0.35209  0.30770  1.0000
  H   H105      1.0  0.79715  0.41494  0.30493  1.0000
  H   H106      1.0  0.78089  0.42864  0.30685  1.0000
  C   C159      1.0  0.83059  0.42833  0.33378  1.0000
  N   N44       1.0  0.82250  0.41117  0.33391  1.0000
  C   C160      1.0  0.83057  0.40210  0.33580  1.0000
  C   C161      1.0  0.85674  0.42827  0.33754  1.0000
  N   N45       1.0  0.84779  0.43658  0.33566  1.0000
  H   H107      1.0  0.87814  0.46178  0.31391  1.0000
  N   N46       1.0  0.79101  0.45954  0.33520  1.0000
  N   N47       1.0  0.92786  0.46426  0.33476  1.0000
  C   C162      1.0  0.56389  0.43776  0.33811  1.0000
  C   C163      1.0  0.56432  0.38444  0.33295  1.0000
  C   C164      1.0  0.54614  0.42937  0.32446  1.0000
  C   C165      1.0  0.53730  0.43835  0.32346  1.0000
  C   C166      1.0  0.54585  0.45597  0.33791  1.0000
  C   C167      1.0  0.64333  0.43598  0.32131  1.0000
  C   C168      1.0  0.62563  0.42813  0.31668  1.0000
  C   C169      1.0  0.57346  0.37587  0.31752  1.0000
  C   C170      1.0  0.56539  0.35813  0.31829  1.0000
  C   C171      1.0  0.54792  0.34830  0.33539  1.0000
  C   C172      1.0  0.53859  0.35661  0.35021  1.0000
  C   C173      1.0  0.54669  0.37444  0.34865  1.0000
  H   H108      1.0  0.52450  0.43189  0.31276  1.0000
  H   H109      1.0  0.61908  0.41562  0.29915  1.0000
  H   H110      1.0  0.64905  0.42900  0.30831  1.0000
  H   H111      1.0  0.58618  0.38241  0.30513  1.0000
  H   H112      1.0  0.57246  0.35244  0.30697  1.0000
  C   C174      1.0  0.57282  0.40248  0.33387  1.0000
  N   N48       1.0  0.58997  0.41153  0.33401  1.0000
  C   C175      1.0  0.59906  0.42868  0.33587  1.0000
  C   C176      1.0  0.57289  0.42869  0.33753  1.0000
  N   N49       1.0  0.56458  0.41144  0.33567  1.0000
  H   H113      1.0  0.53939  0.41660  0.31377  1.0000
  N   N50       1.0  0.54156  0.33169  0.33509  1.0000
  N   N51       1.0  0.53692  0.46384  0.33463  1.0000
  C   C177      1.0  0.56343  0.12634  0.33832  1.0000
  C   C178      1.0  0.61672  0.18011  0.33268  1.0000
  C   C179      1.0  0.57182  0.11697  0.32479  1.0000
  C   C180      1.0  0.56285  0.09916  0.32384  1.0000
  C   C181      1.0  0.54523  0.09009  0.33820  1.0000
  C   C182      1.0  0.56507  0.20744  0.31828  1.0000
  C   C183      1.0  0.57291  0.19758  0.31372  1.0000
  C   C184      1.0  0.62529  0.19781  0.31703  1.0000
  C   C185      1.0  0.64303  0.20749  0.31782  1.0000
  C   C186      1.0  0.65287  0.19987  0.33514  1.0000
  C   C187      1.0  0.64456  0.18223  0.35018  1.0000
  C   C188      1.0  0.62674  0.17250  0.34863  1.0000
  H   H114      1.0  0.56932  0.09283  0.31325  1.0000
  H   H115      1.0  0.58534  0.20346  0.29472  1.0000
  H   H116      1.0  0.57199  0.22008  0.30382  1.0000
  H   H117      1.0  0.61874  0.20398  0.30447  1.0000
  H   H118      1.0  0.64871  0.22025  0.30633  1.0000
  C   C189      1.0  0.59869  0.17056  0.33359  1.0000
  N   N52       1.0  0.58962  0.17865  0.33347  1.0000
  C   C190      1.0  0.57248  0.17057  0.33536  1.0000
  C   C191      1.0  0.57249  0.14441  0.33757  1.0000
  N   N53       1.0  0.58974  0.15336  0.33566  1.0000
  H   H119      1.0  0.58460  0.12300  0.31420  1.0000
  N   N54       1.0  0.66948  0.21013  0.33485  1.0000
  N   N55       1.0  0.53735  0.07328  0.33491  1.0000
  H   H120      1.0  0.04612  0.53054  0.44121  1.0000
  C   C192      1.0  0.99193  0.49527  0.34178  1.0000
  C   C193      1.0  0.95643  0.47322  0.36600  1.0000
  C   C194      1.0  0.96805  0.46774  0.38886  1.0000
  C   C195      1.0  0.98559  0.47880  0.37628  1.0000
  H   H121      1.0  0.99382  0.47469  0.39294  1.0000
  N   N56       1.0  0.96208  0.45126  0.42354  1.0000
  O   O19       1.0  0.96774  0.45173  0.50060  1.0000
  O   O20       1.0  0.96600  0.44264  0.37398  1.0000
  C   C196      1.0  0.93906  0.46270  0.37934  1.0000
  H   H122      1.0  0.93516  0.45368  0.42547  1.0000
  C   C197      1.0  0.48705  0.50677  0.40513  1.0000
  C   C198      1.0  0.47702  0.51433  0.38898  1.0000
  H   H123      1.0  0.47062  0.51580  0.44123  1.0000
  C   C199      1.0  0.50590  0.49689  0.34177  1.0000
  C   C200      1.0  0.52796  0.48345  0.36594  1.0000
  C   C201      1.0  0.53343  0.50054  0.38882  1.0000
  C   C202      1.0  0.52237  0.50702  0.37626  1.0000
  H   H124      1.0  0.52648  0.51937  0.39292  1.0000
  N   N57       1.0  0.48793  0.50182  0.48975  1.0000
  H   H125      1.0  0.48188  0.50344  0.53874  1.0000
  H   H126      1.0  0.49434  0.49625  0.50399  1.0000
  N   N58       1.0  0.54992  0.51106  0.42349  1.0000
  O   O21       1.0  0.54944  0.51624  0.50056  1.0000
  O   O22       1.0  0.55854  0.52360  0.37394  1.0000
  C   C203      1.0  0.53848  0.47660  0.37924  1.0000
  H   H127      1.0  0.54751  0.48173  0.42536  1.0000
  C   C204      1.0  0.49441  0.98049  0.40519  1.0000
  C   C205      1.0  0.48684  0.96289  0.38902  1.0000
  H   H128      1.0  0.48537  0.95502  0.44127  1.0000
  C   C206      1.0  0.50428  0.00921  0.34185  1.0000
  C   C207      1.0  0.51773  0.04472  0.36610  1.0000
  C   C208      1.0  0.50064  0.03309  0.38893  1.0000
  C   C209      1.0  0.49416  0.01555  0.37635  1.0000
  H   H129      1.0  0.48181  0.00732  0.39298  1.0000
  N   N59       1.0  0.49935  0.98631  0.48981  1.0000
  H   H130      1.0  0.49773  0.97864  0.53880  1.0000
  H   H131      1.0  0.50492  0.99829  0.50406  1.0000
  N   N60       1.0  0.49012  0.03906  0.42360  1.0000
  O   O23       1.0  0.48493  0.03340  0.50065  1.0000
  O   O24       1.0  0.47758  0.03515  0.37402  1.0000
  C   C210      1.0  0.52458  0.06208  0.37942  1.0000
  H   H132      1.0  0.51945  0.06598  0.42547  1.0000
  C   C211      1.0  0.22414  0.52587  0.35293  1.0000
  C   C212      1.0  0.23108  0.52200  0.42784  1.0000
  C   C213      1.0  0.24660  0.52218  0.41841  1.0000
  C   C214      1.0  0.25543  0.52635  0.33643  1.0000
  C   C215      1.0  0.28627  0.54340  0.36664  1.0000
  C   C216      1.0  0.30248  0.54519  0.35529  1.0000
  H   H133      1.0  0.31289  0.55624  0.37522  1.0000
  H   H134      1.0  0.25182  0.51990  0.47344  1.0000
  N   N61       1.0  0.28519  0.55637  0.40487  1.0000
  H   H135      1.0  0.27445  0.55600  0.41263  1.0000
  H   H136      1.0  0.29524  0.56658  0.42527  1.0000
  N   N62       1.0  0.22280  0.51872  0.51154  1.0000
  O   O25       1.0  0.21883  0.50424  0.53978  1.0000
  O   O26       1.0  0.23193  0.52948  0.56895  1.0000
  C   C217      1.0  0.20980  0.52735  0.36046  1.0000
  H   H137      1.0  0.19934  0.51806  0.38762  1.0000
  C   C218      1.0  0.47526  0.69847  0.35291  1.0000
  C   C219      1.0  0.47914  0.70927  0.42781  1.0000
  C   C220      1.0  0.47896  0.72462  0.41838  1.0000
  C   C221      1.0  0.47479  0.72927  0.33641  1.0000
  C   C222      1.0  0.45774  0.74307  0.36662  1.0000
  C   C223      1.0  0.45595  0.75749  0.35530  1.0000
  H   H138      1.0  0.44490  0.75685  0.37523  1.0000
  H   H139      1.0  0.48124  0.73212  0.47342  1.0000
  N   N63       1.0  0.44477  0.72902  0.40485  1.0000
  H   H140      1.0  0.44514  0.71865  0.41259  1.0000
  H   H141      1.0  0.43456  0.72886  0.42525  1.0000
  N   N64       1.0  0.48241  0.70427  0.51151  1.0000
  O   O27       1.0  0.49690  0.71479  0.53975  1.0000
  O   O28       1.0  0.47166  0.70264  0.56893  1.0000
  C   C224      1.0  0.47378  0.68265  0.36044  1.0000
  H   H142      1.0  0.48307  0.68147  0.38757  1.0000
  C   C225      1.0  0.30268  0.77702  0.35284  1.0000
  C   C226      1.0  0.29188  0.77009  0.42777  1.0000
  C   C227      1.0  0.27654  0.75457  0.41839  1.0000
  C   C228      1.0  0.27187  0.74573  0.33646  1.0000
  C   C229      1.0  0.25807  0.71489  0.36682  1.0000
  C   C230      1.0  0.24366  0.69869  0.35551  1.0000
  H   H143      1.0  0.24431  0.68827  0.37549  1.0000
  H   H144      1.0  0.26904  0.74936  0.47345  1.0000
  N   N65       1.0  0.27213  0.71598  0.40511  1.0000
  H   H145      1.0  0.28250  0.72673  0.41285  1.0000
  H   H146      1.0  0.27229  0.70594  0.42557  1.0000
  N   N66       1.0  0.29689  0.77839  0.51143  1.0000
  O   O29       1.0  0.28637  0.78236  0.53965  1.0000
  O   O30       1.0  0.29852  0.76927  0.56889  1.0000
  C   C231      1.0  0.31850  0.79136  0.36030  1.0000
  H   H147      1.0  0.31968  0.80182  0.38754  1.0000
  C   C232      1.0  0.77783  0.47521  0.35044  1.0000
  C   C233      1.0  0.77098  0.47904  0.42584  1.0000
  C   C234      1.0  0.75546  0.47889  0.41711  1.0000
  C   C235      1.0  0.74656  0.47478  0.33537  1.0000
  C   C236      1.0  0.71575  0.45767  0.36636  1.0000
  C   C237      1.0  0.69953  0.45590  0.35613  1.0000
  H   H148      1.0  0.68915  0.44482  0.37614  1.0000
  H   H149      1.0  0.75028  0.48112  0.47250  1.0000
  N   N67       1.0  0.71689  0.44466  0.40366  1.0000
  H   H150      1.0  0.72764  0.44503  0.41064  1.0000
  H   H151      1.0  0.70687  0.43443  0.42412  1.0000
  N   N68       1.0  0.77932  0.48224  0.50931  1.0000
  O   O31       1.0  0.78333  0.49670  0.53804  1.0000
  O   O32       1.0  0.77023  0.47144  0.56664  1.0000
  C   C238      1.0  0.79214  0.47365  0.35736  1.0000
  H   H152      1.0  0.80265  0.48291  0.38435  1.0000
  C   C239      1.0  0.52589  0.30284  0.35046  1.0000
  C   C240      1.0  0.52203  0.29215  0.42587  1.0000
  C   C241      1.0  0.52220  0.27680  0.41725  1.0000
  C   C242      1.0  0.52636  0.27201  0.33562  1.0000
  C   C243      1.0  0.54345  0.25831  0.36708  1.0000
  C   C244      1.0  0.54527  0.24390  0.35672  1.0000
  H   H153      1.0  0.55634  0.24460  0.37693  1.0000
  H   H154      1.0  0.51995  0.26939  0.47266  1.0000
  N   N69       1.0  0.55641  0.27245  0.40481  1.0000
  H   H155      1.0  0.55602  0.28282  0.41188  1.0000
  H   H156      1.0  0.56663  0.27266  0.42549  1.0000
  N   N70       1.0  0.51880  0.29730  0.50926  1.0000
  O   O33       1.0  0.50432  0.28683  0.53783  1.0000
  O   O34       1.0  0.52957  0.29901  0.56675  1.0000
  C   C245      1.0  0.52744  0.31871  0.35726  1.0000
  H   H157      1.0  0.51821  0.31996  0.38458  1.0000
  C   C246      1.0  0.69832  0.22332  0.35036  1.0000
  C   C247      1.0  0.70899  0.23018  0.42581  1.0000
  C   C248      1.0  0.72436  0.24570  0.41711  1.0000
  C   C249      1.0  0.72916  0.25460  0.33537  1.0000
  C   C250      1.0  0.74286  0.28541  0.36637  1.0000
  C   C251      1.0  0.75731  0.30163  0.35612  1.0000
  H   H158      1.0  0.75661  0.31201  0.37611  1.0000
  H   H159      1.0  0.73175  0.25088  0.47254  1.0000
  N   N71       1.0  0.72871  0.28427  0.40367  1.0000
  H   H160      1.0  0.71833  0.27352  0.41065  1.0000
  H   H161      1.0  0.72850  0.29429  0.42412  1.0000
  N   N72       1.0  0.70383  0.22184  0.50928  1.0000
  O   O35       1.0  0.71429  0.21784  0.53812  1.0000
  O   O36       1.0  0.70211  0.23094  0.56656  1.0000
  C   C252      1.0  0.68246  0.20900  0.35721  1.0000
  H   H162      1.0  0.68120  0.19853  0.38472  1.0000
