data_image0
_chemical_formula_structural       C8H3CHNC3H3C2NHC8H3CHNC3H3C2NHN3CHC4HCH2C4HCH2C3H2CH2NCHC4HCH2C4HCH2C3H2CH2CNHCNHC21NCH3C3NHCNHCNHC21NCH3C3NHC7HCH2CNHCNHCHCH2C2H3C3NCH3C3NCH3C7HCH2CNHCNHCHCH2C2H3C3NCH3C3NCH3C8HC7HCH4CNHCNHCNHCNHCNHCNHC8HC7HCH4C8HC7HCH4C3NCH3C3NCH3C3NCH3C3NCH3C3NCH3C3NCH3C8HC7HCH4CNHCNHCNHCNHCNHCNHC8HC7HCH4C8HC7HCH4C3NCH3C3NCH3C3NCH3C3NCH3C3NCH3C3NCH3
_chemical_formula_sum              "C312 H168 N48"
_cell_length_a       46.4512
_cell_length_b       46.4512
_cell_length_c       14.809
_cell_angle_alpha    89.998
_cell_angle_beta     90.002
_cell_angle_gamma    120

_space_group_name_H-M_alt    "P 1"
_space_group_IT_number       1

loop_
  _space_group_symop_operation_xyz
  'x, y, z'

loop_
  _atom_site_type_symbol
  _atom_site_label
  _atom_site_symmetry_multiplicity
  _atom_site_fract_x
  _atom_site_fract_y
  _atom_site_fract_z
  _atom_site_occupancy
  C   C1        1.0  0.02794  0.26484  0.35692  1.0000
  C   C2        1.0  0.04574  0.30045  0.35484  1.0000
  C   C3        1.0  0.08102  0.31821  0.34690  1.0000
  C   C4        1.0  0.09769  0.29984  0.34309  1.0000
  C   C5        1.0  0.08124  0.26481  0.34802  1.0000
  C   C6        1.0  0.04589  0.24718  0.35488  1.0000
  C   C7        1.0  0.02738  0.31720  0.35531  1.0000
  C   C8        1.0  0.02763  0.21206  0.35532  1.0000
  H   H1        1.0  0.12322  0.31268  0.33932  1.0000
  H   H2        1.0  0.03922  0.34261  0.35312  1.0000
  H   H3        1.0  0.03954  0.19856  0.35307  1.0000
  C   C9        1.0  0.12168  0.25752  0.26283  1.0000
  H   H4        1.0  0.11632  0.26655  0.20612  1.0000
  N   N1        1.0  0.12160  0.36461  0.26468  1.0000
  C   C10       1.0  0.11419  0.24181  0.41946  1.0000
  C   C11       1.0  0.10196  0.25037  0.34166  1.0000
  C   C12       1.0  0.09934  0.23638  0.51069  1.0000
  H   H5        1.0  0.07586  0.23632  0.51140  1.0000
  H   H6        1.0  0.11656  0.25593  0.55613  1.0000
  H   H7        1.0  0.09469  0.21241  0.53646  1.0000
  C   C13       1.0  0.14214  0.40155  0.41913  1.0000
  C   C14       1.0  0.10147  0.35308  0.33816  1.0000
  N   N2        1.0  0.11323  0.37165  0.41458  1.0000
  H   H8        1.0  0.13223  0.42078  0.53667  1.0000
  C   C15       1.0  0.02794  0.76484  0.35692  1.0000
  C   C16       1.0  0.04574  0.80045  0.35484  1.0000
  C   C17       1.0  0.08102  0.81821  0.34690  1.0000
  C   C18       1.0  0.09769  0.79985  0.34309  1.0000
  C   C19       1.0  0.08124  0.76481  0.34802  1.0000
  C   C20       1.0  0.04589  0.74718  0.35488  1.0000
  C   C21       1.0  0.02738  0.81720  0.35531  1.0000
  C   C22       1.0  0.02763  0.71206  0.35532  1.0000
  H   H9        1.0  0.12322  0.81268  0.33932  1.0000
  H   H10       1.0  0.03921  0.84261  0.35312  1.0000
  H   H11       1.0  0.03954  0.69856  0.35307  1.0000
  C   C23       1.0  0.12169  0.75752  0.26283  1.0000
  H   H12       1.0  0.11632  0.76655  0.20612  1.0000
  N   N3        1.0  0.12160  0.86461  0.26468  1.0000
  C   C24       1.0  0.11419  0.74181  0.41946  1.0000
  C   C25       1.0  0.10196  0.75037  0.34166  1.0000
  C   C26       1.0  0.09934  0.73638  0.51069  1.0000
  H   H13       1.0  0.07586  0.73632  0.51140  1.0000
  H   H14       1.0  0.11656  0.75593  0.55613  1.0000
  H   H15       1.0  0.09469  0.71241  0.53646  1.0000
  C   C27       1.0  0.14214  0.90155  0.41913  1.0000
  C   C28       1.0  0.10147  0.85308  0.33816  1.0000
  N   N4        1.0  0.11323  0.87166  0.41458  1.0000
  H   H16       1.0  0.13224  0.92078  0.53667  1.0000
  N   N5        1.0  0.14407  0.24276  0.41500  1.0000
  N   N6        1.0  0.14407  0.74276  0.41500  1.0000
  N   N7        1.0  0.15127  0.25848  0.26518  1.0000
  C   C29       1.0  0.15026  0.39416  0.26247  1.0000
  H   H17       1.0  0.16456  0.39965  0.20556  1.0000
  C   C30       1.0  0.21538  0.24672  0.35486  1.0000
  C   C31       1.0  0.19758  0.26421  0.34677  1.0000
  C   C32       1.0  0.21593  0.29924  0.34301  1.0000
  C   C33       1.0  0.19867  0.21161  0.35538  1.0000
  H   H18       1.0  0.20308  0.31193  0.33916  1.0000
  C   C34       1.0  0.21622  0.19428  0.35509  1.0000
  H   H19       1.0  0.20275  0.16887  0.35277  1.0000
  H   H20       1.0  0.17327  0.19801  0.35307  1.0000
  C   C35       1.0  0.21664  0.41814  0.34288  1.0000
  C   C36       1.0  0.19804  0.43458  0.34794  1.0000
  C   C37       1.0  0.21575  0.46992  0.35494  1.0000
  C   C38       1.0  0.19889  0.48818  0.35546  1.0000
  H   H21       1.0  0.20394  0.39261  0.33893  1.0000
  C   C39       1.0  0.21624  0.02304  0.35576  1.0000
  H   H22       1.0  0.20266  0.03487  0.35351  1.0000
  H   H23       1.0  0.17348  0.47626  0.35315  1.0000
  C   C40       1.0  0.16268  0.24973  0.33868  1.0000
  C   C41       1.0  0.16291  0.41386  0.34126  1.0000
  C   C42       1.0  0.15158  0.41624  0.51054  1.0000
  H   H24       1.0  0.17497  0.43975  0.51140  1.0000
  H   H25       1.0  0.15398  0.39897  0.55561  1.0000
  C   C43       1.0  0.24074  0.14702  0.51034  1.0000
  H   H26       1.0  0.24047  0.17033  0.51102  1.0000
  H   H27       1.0  0.21687  0.12759  0.53635  1.0000
  N   N8        1.0  0.15127  0.75848  0.26518  1.0000
  C   C44       1.0  0.15026  0.89416  0.26247  1.0000
  H   H28       1.0  0.16456  0.89965  0.20556  1.0000
  C   C45       1.0  0.21538  0.74671  0.35486  1.0000
  C   C46       1.0  0.19759  0.76421  0.34677  1.0000
  C   C47       1.0  0.21593  0.79924  0.34301  1.0000
  C   C48       1.0  0.19867  0.71161  0.35538  1.0000
  H   H29       1.0  0.20308  0.81193  0.33916  1.0000
  C   C49       1.0  0.21622  0.69428  0.35509  1.0000
  H   H30       1.0  0.20275  0.66887  0.35277  1.0000
  H   H31       1.0  0.17327  0.69801  0.35307  1.0000
  C   C50       1.0  0.21664  0.91814  0.34288  1.0000
  C   C51       1.0  0.19804  0.93458  0.34794  1.0000
  C   C52       1.0  0.21575  0.96993  0.35494  1.0000
  C   C53       1.0  0.19889  0.98818  0.35546  1.0000
  H   H32       1.0  0.20394  0.89261  0.33893  1.0000
  C   C54       1.0  0.21624  0.52304  0.35576  1.0000
  H   H33       1.0  0.20266  0.53487  0.35351  1.0000
  H   H34       1.0  0.17348  0.97626  0.35315  1.0000
  C   C55       1.0  0.16268  0.74973  0.33868  1.0000
  C   C56       1.0  0.16291  0.91386  0.34126  1.0000
  C   C57       1.0  0.15158  0.91624  0.51054  1.0000
  H   H35       1.0  0.17497  0.93975  0.51140  1.0000
  H   H36       1.0  0.15398  0.89897  0.55561  1.0000
  C   C58       1.0  0.24074  0.64702  0.51034  1.0000
  H   H37       1.0  0.24047  0.67033  0.51102  1.0000
  H   H38       1.0  0.21688  0.62760  0.53635  1.0000
  C   C59       1.0  0.25836  0.36563  0.26226  1.0000
  N   N9        1.0  0.25749  0.39431  0.26436  1.0000
  H   H39       1.0  0.24953  0.35127  0.20546  1.0000
  C   C60       1.0  0.26191  0.14577  0.26252  1.0000
  N   N10       1.0  0.26298  0.11721  0.26505  1.0000
  H   H40       1.0  0.27076  0.16008  0.20562  1.0000
  C   C61       1.0  0.25099  0.26455  0.35692  1.0000
  C   C62       1.0  0.25096  0.31786  0.34797  1.0000
  C   C63       1.0  0.26862  0.30017  0.35485  1.0000
  C   C64       1.0  0.30374  0.31707  0.35530  1.0000
  C   C65       1.0  0.26895  0.24678  0.35692  1.0000
  C   C66       1.0  0.25133  0.21116  0.35474  1.0000
  C   C67       1.0  0.26902  0.19349  0.34792  1.0000
  C   C68       1.0  0.30405  0.21214  0.34293  1.0000
  C   C69       1.0  0.30457  0.26463  0.35490  1.0000
  C   C70       1.0  0.25137  0.48788  0.35699  1.0000
  C   C71       1.0  0.26918  0.47008  0.35480  1.0000
  C   C72       1.0  0.25167  0.43480  0.34669  1.0000
  C   C73       1.0  0.30429  0.48845  0.35532  1.0000
  C   C74       1.0  0.26916  0.02361  0.35703  1.0000
  C   C75       1.0  0.30478  0.04158  0.35481  1.0000
  C   C76       1.0  0.30387  0.09337  0.34322  1.0000
  C   C77       1.0  0.26884  0.07669  0.34706  1.0000
  C   C78       1.0  0.25135  0.04141  0.35511  1.0000
  C   C79       1.0  0.27378  0.37373  0.41915  1.0000
  C   C80       1.0  0.26532  0.35299  0.34120  1.0000
  C   C81       1.0  0.26611  0.41436  0.33798  1.0000
  N   N11       1.0  0.27289  0.40269  0.41460  1.0000
  C   C82       1.0  0.27912  0.36430  0.51049  1.0000
  H   H41       1.0  0.27919  0.34088  0.51132  1.0000
  H   H42       1.0  0.25951  0.36196  0.55574  1.0000
  H   H43       1.0  0.30305  0.38362  0.53642  1.0000
  C   C83       1.0  0.24616  0.13761  0.41906  1.0000
  C   C84       1.0  0.25471  0.15836  0.34113  1.0000
  C   C85       1.0  0.25437  0.09711  0.33865  1.0000
  N   N12       1.0  0.24732  0.10879  0.41481  1.0000
  H   H44       1.0  0.26041  0.14954  0.55562  1.0000
  C   C86       1.0  0.25836  0.86563  0.26226  1.0000
  N   N13       1.0  0.25749  0.89431  0.26436  1.0000
  H   H45       1.0  0.24953  0.85127  0.20546  1.0000
  C   C87       1.0  0.26191  0.64577  0.26252  1.0000
  N   N14       1.0  0.26298  0.61721  0.26505  1.0000
  H   H46       1.0  0.27076  0.66008  0.20562  1.0000
  C   C88       1.0  0.25099  0.76455  0.35692  1.0000
  C   C89       1.0  0.25096  0.81786  0.34797  1.0000
  C   C90       1.0  0.26862  0.80017  0.35485  1.0000
  C   C91       1.0  0.30374  0.81706  0.35530  1.0000
  C   C92       1.0  0.26895  0.74678  0.35692  1.0000
  C   C93       1.0  0.25134  0.71116  0.35474  1.0000
  C   C94       1.0  0.26902  0.69349  0.34792  1.0000
  C   C95       1.0  0.30405  0.71214  0.34293  1.0000
  C   C96       1.0  0.30457  0.76463  0.35490  1.0000
  C   C97       1.0  0.25137  0.98789  0.35699  1.0000
  C   C98       1.0  0.26918  0.97008  0.35480  1.0000
  C   C99       1.0  0.25167  0.93480  0.34669  1.0000
  C   C100      1.0  0.30429  0.98845  0.35532  1.0000
  C   C101      1.0  0.26916  0.52361  0.35703  1.0000
  C   C102      1.0  0.30478  0.54158  0.35481  1.0000
  C   C103      1.0  0.30387  0.59337  0.34322  1.0000
  C   C104      1.0  0.26884  0.57669  0.34706  1.0000
  C   C105      1.0  0.25135  0.54141  0.35511  1.0000
  C   C106      1.0  0.27378  0.87373  0.41915  1.0000
  C   C107      1.0  0.26532  0.85299  0.34120  1.0000
  C   C108      1.0  0.26611  0.91436  0.33798  1.0000
  N   N15       1.0  0.27289  0.90269  0.41460  1.0000
  C   C109      1.0  0.27912  0.86430  0.51049  1.0000
  H   H47       1.0  0.27919  0.84089  0.51132  1.0000
  H   H48       1.0  0.25951  0.86196  0.55574  1.0000
  H   H49       1.0  0.30305  0.88362  0.53642  1.0000
  C   C110      1.0  0.24616  0.63761  0.41906  1.0000
  C   C111      1.0  0.25471  0.65836  0.34113  1.0000
  C   C112      1.0  0.25437  0.59711  0.33865  1.0000
  N   N16       1.0  0.24732  0.60879  0.41481  1.0000
  H   H50       1.0  0.26041  0.64954  0.55562  1.0000
  C   C113      1.0  0.49221  0.24692  0.35688  1.0000
  C   C114      1.0  0.47424  0.26457  0.35470  1.0000
  C   C115      1.0  0.43889  0.24693  0.34773  1.0000
  C   C116      1.0  0.42246  0.21189  0.34268  1.0000
  C   C117      1.0  0.43913  0.19354  0.34663  1.0000
  C   C118      1.0  0.47441  0.21131  0.35481  1.0000
  C   C119      1.0  0.49251  0.29969  0.35515  1.0000
  H   H51       1.0  0.39693  0.19904  0.33879  1.0000
  C   C120      1.0  0.49276  0.19456  0.35546  1.0000
  H   H52       1.0  0.48060  0.31319  0.35274  1.0000
  H   H53       1.0  0.48093  0.16915  0.35324  1.0000
  C   C121      1.0  0.39839  0.25414  0.26260  1.0000
  N   N17       1.0  0.36873  0.25302  0.26507  1.0000
  H   H54       1.0  0.40378  0.24516  0.20587  1.0000
  C   C122      1.0  0.37011  0.11733  0.26229  1.0000
  N   N18       1.0  0.39859  0.14704  0.26441  1.0000
  H   H55       1.0  0.35570  0.11181  0.20560  1.0000
  C   C123      1.0  0.32238  0.24717  0.34675  1.0000
  H   H56       1.0  0.31693  0.19948  0.33911  1.0000
  C   C124      1.0  0.32128  0.29974  0.35559  1.0000
  H   H57       1.0  0.34669  0.31334  0.35329  1.0000
  H   H58       1.0  0.31721  0.34247  0.35303  1.0000
  C   C125      1.0  0.32248  0.07693  0.34793  1.0000
  C   C126      1.0  0.32164  0.02332  0.35513  1.0000
  H   H59       1.0  0.31656  0.11890  0.33937  1.0000
  H   H60       1.0  0.34705  0.03524  0.35272  1.0000
  H   H61       1.0  0.31787  0.47663  0.35293  1.0000
  C   C127      1.0  0.40587  0.26981  0.41926  1.0000
  C   C128      1.0  0.41815  0.26134  0.34139  1.0000
  C   C129      1.0  0.35728  0.26168  0.33864  1.0000
  N   N19       1.0  0.37593  0.26873  0.41492  1.0000
  C   C130      1.0  0.42076  0.27529  0.51047  1.0000
  H   H62       1.0  0.44430  0.27549  0.51109  1.0000
  H   H63       1.0  0.40361  0.25568  0.55588  1.0000
  H   H64       1.0  0.42527  0.29920  0.53631  1.0000
  C   C131      1.0  0.37840  0.11017  0.41903  1.0000
  C   C132      1.0  0.35761  0.09767  0.34126  1.0000
  C   C133      1.0  0.41872  0.15866  0.33781  1.0000
  N   N20       1.0  0.40720  0.14016  0.41440  1.0000
  C   C134      1.0  0.36906  0.09548  0.51047  1.0000
  H   H65       1.0  0.34579  0.07185  0.51130  1.0000
  H   H66       1.0  0.36646  0.11266  0.55546  1.0000
  H   H67       1.0  0.38854  0.09116  0.53667  1.0000
  C   C135      1.0  0.49221  0.74692  0.35688  1.0000
  C   C136      1.0  0.47424  0.76457  0.35470  1.0000
  C   C137      1.0  0.43889  0.74693  0.34773  1.0000
  C   C138      1.0  0.42246  0.71189  0.34268  1.0000
  C   C139      1.0  0.43913  0.69354  0.34663  1.0000
  C   C140      1.0  0.47441  0.71130  0.35481  1.0000
  C   C141      1.0  0.49251  0.79969  0.35515  1.0000
  H   H68       1.0  0.39693  0.69904  0.33879  1.0000
  C   C142      1.0  0.49277  0.69456  0.35546  1.0000
  H   H69       1.0  0.48060  0.81319  0.35274  1.0000
  H   H70       1.0  0.48093  0.66915  0.35324  1.0000
  C   C143      1.0  0.39839  0.75414  0.26260  1.0000
  N   N21       1.0  0.36873  0.75302  0.26507  1.0000
  H   H71       1.0  0.40379  0.74516  0.20587  1.0000
  C   C144      1.0  0.37011  0.61733  0.26229  1.0000
  N   N22       1.0  0.39860  0.64704  0.26441  1.0000
  H   H72       1.0  0.35570  0.61181  0.20560  1.0000
  C   C145      1.0  0.32238  0.74717  0.34675  1.0000
  H   H73       1.0  0.31693  0.69948  0.33911  1.0000
  C   C146      1.0  0.32128  0.79974  0.35559  1.0000
  H   H74       1.0  0.34668  0.81334  0.35329  1.0000
  H   H75       1.0  0.31721  0.84247  0.35303  1.0000
  C   C147      1.0  0.32248  0.57693  0.34793  1.0000
  C   C148      1.0  0.32165  0.52333  0.35513  1.0000
  H   H76       1.0  0.31656  0.61890  0.33937  1.0000
  H   H77       1.0  0.34705  0.53524  0.35272  1.0000
  H   H78       1.0  0.31787  0.97662  0.35293  1.0000
  C   C149      1.0  0.40587  0.76981  0.41926  1.0000
  C   C150      1.0  0.41815  0.76134  0.34139  1.0000
  C   C151      1.0  0.35728  0.76168  0.33864  1.0000
  N   N23       1.0  0.37593  0.76873  0.41492  1.0000
  C   C152      1.0  0.42076  0.77529  0.51047  1.0000
  H   H79       1.0  0.44431  0.77549  0.51109  1.0000
  H   H80       1.0  0.40361  0.75568  0.55588  1.0000
  H   H81       1.0  0.42527  0.79920  0.53631  1.0000
  C   C153      1.0  0.37840  0.61017  0.41903  1.0000
  C   C154      1.0  0.35761  0.59767  0.34126  1.0000
  C   C155      1.0  0.41872  0.65867  0.33781  1.0000
  N   N24       1.0  0.40720  0.64016  0.41440  1.0000
  C   C156      1.0  0.36905  0.59548  0.51047  1.0000
  H   H82       1.0  0.34579  0.57185  0.51130  1.0000
  H   H83       1.0  0.36646  0.61266  0.55546  1.0000
  H   H84       1.0  0.38854  0.59117  0.53667  1.0000
  C   C157      1.0  0.52793  0.26484  0.35692  1.0000
  C   C158      1.0  0.54574  0.30045  0.35484  1.0000
  C   C159      1.0  0.58102  0.31821  0.34690  1.0000
  C   C160      1.0  0.59769  0.29984  0.34309  1.0000
  C   C161      1.0  0.58124  0.26481  0.34802  1.0000
  C   C162      1.0  0.54589  0.24718  0.35488  1.0000
  C   C163      1.0  0.52738  0.31720  0.35531  1.0000
  C   C164      1.0  0.52763  0.21206  0.35532  1.0000
  H   H85       1.0  0.62322  0.31268  0.33932  1.0000
  C   C165      1.0  0.99221  0.24692  0.35688  1.0000
  C   C166      1.0  0.97425  0.26457  0.35470  1.0000
  C   C167      1.0  0.93889  0.24693  0.34773  1.0000
  C   C168      1.0  0.92246  0.21189  0.34268  1.0000
  C   C169      1.0  0.93913  0.19354  0.34663  1.0000
  C   C170      1.0  0.97441  0.21131  0.35481  1.0000
  C   C171      1.0  0.99251  0.29969  0.35515  1.0000
  H   H86       1.0  0.89693  0.19904  0.33879  1.0000
  C   C172      1.0  0.99276  0.19456  0.35546  1.0000
  H   H87       1.0  0.98060  0.31319  0.35274  1.0000
  H   H88       1.0  0.53922  0.34261  0.35312  1.0000
  H   H89       1.0  0.98093  0.16915  0.35324  1.0000
  H   H90       1.0  0.53954  0.19856  0.35307  1.0000
  C   C173      1.0  0.62169  0.25752  0.26283  1.0000
  N   N25       1.0  0.65127  0.25848  0.26518  1.0000
  H   H91       1.0  0.61632  0.26655  0.20612  1.0000
  C   C174      1.0  0.75836  0.36563  0.26226  1.0000
  N   N26       1.0  0.75749  0.39431  0.26436  1.0000
  H   H92       1.0  0.74953  0.35127  0.20546  1.0000
  C   C175      1.0  0.65026  0.39416  0.26247  1.0000
  N   N27       1.0  0.62160  0.36461  0.26468  1.0000
  H   H93       1.0  0.66456  0.39965  0.20556  1.0000
  C   C176      1.0  0.89839  0.25414  0.26260  1.0000
  N   N28       1.0  0.86873  0.25302  0.26507  1.0000
  H   H94       1.0  0.90378  0.24516  0.20587  1.0000
  C   C177      1.0  0.76191  0.14577  0.26252  1.0000
  N   N29       1.0  0.76298  0.11721  0.26505  1.0000
  H   H95       1.0  0.77076  0.16008  0.20562  1.0000
  C   C178      1.0  0.87011  0.11733  0.26229  1.0000
  N   N30       1.0  0.89859  0.14704  0.26441  1.0000
  H   H96       1.0  0.85570  0.11181  0.20560  1.0000
  C   C179      1.0  0.75099  0.26455  0.35692  1.0000
  C   C180      1.0  0.71538  0.24672  0.35486  1.0000
  C   C181      1.0  0.69758  0.26421  0.34677  1.0000
  C   C182      1.0  0.71593  0.29924  0.34301  1.0000
  C   C183      1.0  0.75096  0.31786  0.34797  1.0000
  C   C184      1.0  0.76862  0.30017  0.35485  1.0000
  C   C185      1.0  0.69867  0.21161  0.35538  1.0000
  C   C186      1.0  0.80374  0.31707  0.35530  1.0000
  H   H97       1.0  0.70308  0.31193  0.33916  1.0000
  C   C187      1.0  0.76895  0.24678  0.35692  1.0000
  C   C188      1.0  0.75133  0.21116  0.35474  1.0000
  C   C189      1.0  0.76902  0.19349  0.34792  1.0000
  C   C190      1.0  0.80405  0.21214  0.34293  1.0000
  C   C191      1.0  0.82238  0.24717  0.34675  1.0000
  C   C192      1.0  0.80457  0.26463  0.35490  1.0000
  C   C193      1.0  0.71622  0.19428  0.35509  1.0000
  H   H98       1.0  0.81693  0.19948  0.33911  1.0000
  C   C194      1.0  0.82128  0.29974  0.35559  1.0000
  H   H99       1.0  0.70275  0.16887  0.35277  1.0000
  H   H100      1.0  0.67327  0.19801  0.35307  1.0000
  H   H101      1.0  0.84669  0.31334  0.35329  1.0000
  H   H102      1.0  0.81721  0.34247  0.35303  1.0000
  C   C195      1.0  0.75137  0.48788  0.35699  1.0000
  C   C196      1.0  0.76918  0.47008  0.35480  1.0000
  C   C197      1.0  0.75167  0.43480  0.34669  1.0000
  C   C198      1.0  0.71664  0.41814  0.34288  1.0000
  C   C199      1.0  0.69804  0.43458  0.34794  1.0000
  C   C200      1.0  0.71575  0.46992  0.35494  1.0000
  C   C201      1.0  0.80429  0.48845  0.35532  1.0000
  C   C202      1.0  0.69889  0.48818  0.35546  1.0000
  H   H103      1.0  0.70394  0.39261  0.33893  1.0000
  C   C203      1.0  0.76916  0.02361  0.35703  1.0000
  C   C204      1.0  0.80478  0.04158  0.35481  1.0000
  C   C205      1.0  0.82248  0.07693  0.34793  1.0000
  C   C206      1.0  0.80387  0.09337  0.34322  1.0000
  C   C207      1.0  0.76884  0.07669  0.34706  1.0000
  C   C208      1.0  0.75135  0.04141  0.35511  1.0000
  C   C209      1.0  0.82164  0.02332  0.35513  1.0000
  H   H104      1.0  0.81656  0.11890  0.33937  1.0000
  C   C210      1.0  0.71624  0.02304  0.35576  1.0000
  H   H105      1.0  0.84705  0.03524  0.35272  1.0000
  H   H106      1.0  0.81787  0.47663  0.35293  1.0000
  H   H107      1.0  0.70266  0.03487  0.35351  1.0000
  H   H108      1.0  0.67348  0.47626  0.35315  1.0000
  C   C211      1.0  0.61419  0.24181  0.41946  1.0000
  C   C212      1.0  0.60196  0.25037  0.34166  1.0000
  C   C213      1.0  0.66268  0.24973  0.33868  1.0000
  N   N31       1.0  0.64407  0.24276  0.41500  1.0000
  C   C214      1.0  0.59934  0.23638  0.51069  1.0000
  H   H109      1.0  0.57586  0.23632  0.51140  1.0000
  H   H110      1.0  0.61656  0.25593  0.55613  1.0000
  H   H111      1.0  0.59469  0.21241  0.53646  1.0000
  C   C215      1.0  0.77378  0.37373  0.41915  1.0000
  C   C216      1.0  0.76532  0.35299  0.34120  1.0000
  C   C217      1.0  0.76611  0.41436  0.33798  1.0000
  N   N32       1.0  0.77289  0.40269  0.41460  1.0000
  C   C218      1.0  0.77912  0.36430  0.51049  1.0000
  H   H112      1.0  0.77919  0.34088  0.51132  1.0000
  H   H113      1.0  0.75951  0.36196  0.55574  1.0000
  H   H114      1.0  0.80305  0.38362  0.53642  1.0000
  C   C219      1.0  0.64214  0.40155  0.41913  1.0000
  C   C220      1.0  0.66291  0.41386  0.34126  1.0000
  C   C221      1.0  0.60147  0.35308  0.33816  1.0000
  N   N33       1.0  0.61323  0.37165  0.41458  1.0000
  C   C222      1.0  0.65158  0.41624  0.51054  1.0000
  H   H115      1.0  0.67497  0.43975  0.51140  1.0000
  H   H116      1.0  0.65398  0.39897  0.55561  1.0000
  H   H117      1.0  0.63224  0.42078  0.53667  1.0000
  C   C223      1.0  0.90587  0.26981  0.41926  1.0000
  C   C224      1.0  0.91815  0.26134  0.34139  1.0000
  C   C225      1.0  0.85728  0.26168  0.33864  1.0000
  N   N34       1.0  0.87593  0.26873  0.41492  1.0000
  C   C226      1.0  0.92076  0.27529  0.51047  1.0000
  H   H118      1.0  0.94431  0.27549  0.51109  1.0000
  H   H119      1.0  0.90361  0.25568  0.55588  1.0000
  H   H120      1.0  0.92527  0.29920  0.53631  1.0000
  C   C227      1.0  0.74616  0.13761  0.41906  1.0000
  C   C228      1.0  0.75471  0.15836  0.34113  1.0000
  C   C229      1.0  0.75437  0.09711  0.33865  1.0000
  N   N35       1.0  0.74732  0.10879  0.41481  1.0000
  C   C230      1.0  0.74074  0.14702  0.51034  1.0000
  H   H121      1.0  0.74047  0.17033  0.51102  1.0000
  H   H122      1.0  0.76041  0.14954  0.55562  1.0000
  H   H123      1.0  0.71687  0.12759  0.53635  1.0000
  C   C231      1.0  0.87840  0.11017  0.41903  1.0000
  C   C232      1.0  0.85761  0.09767  0.34126  1.0000
  C   C233      1.0  0.91872  0.15866  0.33781  1.0000
  N   N36       1.0  0.90720  0.14016  0.41440  1.0000
  C   C234      1.0  0.86906  0.09548  0.51047  1.0000
  H   H124      1.0  0.84579  0.07185  0.51130  1.0000
  H   H125      1.0  0.86646  0.11266  0.55546  1.0000
  H   H126      1.0  0.88854  0.09116  0.53667  1.0000
  C   C235      1.0  0.52793  0.76484  0.35692  1.0000
  C   C236      1.0  0.54574  0.80045  0.35484  1.0000
  C   C237      1.0  0.58102  0.81821  0.34690  1.0000
  C   C238      1.0  0.59769  0.79985  0.34309  1.0000
  C   C239      1.0  0.58125  0.76481  0.34802  1.0000
  C   C240      1.0  0.54589  0.74718  0.35488  1.0000
  C   C241      1.0  0.52738  0.81720  0.35531  1.0000
  C   C242      1.0  0.52763  0.71206  0.35532  1.0000
  H   H127      1.0  0.62322  0.81268  0.33932  1.0000
  C   C243      1.0  0.99221  0.74692  0.35688  1.0000
  C   C244      1.0  0.97424  0.76457  0.35470  1.0000
  C   C245      1.0  0.93889  0.74693  0.34773  1.0000
  C   C246      1.0  0.92246  0.71189  0.34268  1.0000
  C   C247      1.0  0.93913  0.69354  0.34663  1.0000
  C   C248      1.0  0.97441  0.71130  0.35481  1.0000
  C   C249      1.0  0.99251  0.79969  0.35515  1.0000
  H   H128      1.0  0.89693  0.69904  0.33879  1.0000
  C   C250      1.0  0.99276  0.69456  0.35546  1.0000
  H   H129      1.0  0.98060  0.81319  0.35274  1.0000
  H   H130      1.0  0.53922  0.84261  0.35312  1.0000
  H   H131      1.0  0.98093  0.66915  0.35324  1.0000
  H   H132      1.0  0.53954  0.69856  0.35307  1.0000
  C   C251      1.0  0.62169  0.75752  0.26283  1.0000
  N   N37       1.0  0.65127  0.75848  0.26518  1.0000
  H   H133      1.0  0.61633  0.76655  0.20612  1.0000
  C   C252      1.0  0.75836  0.86563  0.26226  1.0000
  N   N38       1.0  0.75749  0.89431  0.26436  1.0000
  H   H134      1.0  0.74953  0.85127  0.20546  1.0000
  C   C253      1.0  0.65026  0.89416  0.26247  1.0000
  N   N39       1.0  0.62160  0.86461  0.26468  1.0000
  H   H135      1.0  0.66456  0.89965  0.20556  1.0000
  C   C254      1.0  0.89839  0.75414  0.26260  1.0000
  N   N40       1.0  0.86873  0.75302  0.26507  1.0000
  H   H136      1.0  0.90378  0.74516  0.20587  1.0000
  C   C255      1.0  0.76191  0.64577  0.26252  1.0000
  N   N41       1.0  0.76298  0.61721  0.26505  1.0000
  H   H137      1.0  0.77076  0.66008  0.20562  1.0000
  C   C256      1.0  0.87011  0.61733  0.26229  1.0000
  N   N42       1.0  0.89859  0.64704  0.26441  1.0000
  H   H138      1.0  0.85570  0.61181  0.20560  1.0000
  C   C257      1.0  0.75099  0.76455  0.35692  1.0000
  C   C258      1.0  0.71538  0.74671  0.35486  1.0000
  C   C259      1.0  0.69758  0.76421  0.34677  1.0000
  C   C260      1.0  0.71593  0.79924  0.34301  1.0000
  C   C261      1.0  0.75096  0.81786  0.34797  1.0000
  C   C262      1.0  0.76862  0.80017  0.35485  1.0000
  C   C263      1.0  0.69867  0.71161  0.35538  1.0000
  C   C264      1.0  0.80374  0.81706  0.35530  1.0000
  H   H139      1.0  0.70308  0.81193  0.33916  1.0000
  C   C265      1.0  0.76895  0.74678  0.35692  1.0000
  C   C266      1.0  0.75133  0.71116  0.35474  1.0000
  C   C267      1.0  0.76902  0.69349  0.34792  1.0000
  C   C268      1.0  0.80405  0.71214  0.34293  1.0000
  C   C269      1.0  0.82238  0.74717  0.34675  1.0000
  C   C270      1.0  0.80457  0.76463  0.35490  1.0000
  C   C271      1.0  0.71621  0.69428  0.35509  1.0000
  H   H140      1.0  0.81693  0.69948  0.33911  1.0000
  C   C272      1.0  0.82128  0.79974  0.35559  1.0000
  H   H141      1.0  0.70275  0.66887  0.35277  1.0000
  H   H142      1.0  0.67327  0.69801  0.35307  1.0000
  H   H143      1.0  0.84669  0.81334  0.35329  1.0000
  H   H144      1.0  0.81721  0.84247  0.35303  1.0000
  C   C273      1.0  0.75137  0.98789  0.35699  1.0000
  C   C274      1.0  0.76918  0.97008  0.35480  1.0000
  C   C275      1.0  0.75167  0.93480  0.34669  1.0000
  C   C276      1.0  0.71664  0.91814  0.34288  1.0000
  C   C277      1.0  0.69804  0.93458  0.34794  1.0000
  C   C278      1.0  0.71575  0.96993  0.35494  1.0000
  C   C279      1.0  0.80429  0.98845  0.35532  1.0000
  C   C280      1.0  0.69889  0.98818  0.35546  1.0000
  H   H145      1.0  0.70394  0.89261  0.33893  1.0000
  C   C281      1.0  0.76916  0.52361  0.35703  1.0000
  C   C282      1.0  0.80478  0.54158  0.35481  1.0000
  C   C283      1.0  0.82248  0.57693  0.34793  1.0000
  C   C284      1.0  0.80387  0.59337  0.34322  1.0000
  C   C285      1.0  0.76884  0.57669  0.34706  1.0000
  C   C286      1.0  0.75135  0.54141  0.35511  1.0000
  C   C287      1.0  0.82164  0.52333  0.35513  1.0000
  H   H146      1.0  0.81656  0.61890  0.33937  1.0000
  C   C288      1.0  0.71624  0.52304  0.35576  1.0000
  H   H147      1.0  0.84705  0.53524  0.35272  1.0000
  H   H148      1.0  0.81787  0.97662  0.35293  1.0000
  H   H149      1.0  0.70266  0.53487  0.35351  1.0000
  H   H150      1.0  0.67348  0.97626  0.35315  1.0000
  C   C289      1.0  0.61419  0.74181  0.41946  1.0000
  C   C290      1.0  0.60196  0.75037  0.34166  1.0000
  C   C291      1.0  0.66268  0.74973  0.33868  1.0000
  N   N43       1.0  0.64407  0.74276  0.41500  1.0000
  C   C292      1.0  0.59934  0.73638  0.51069  1.0000
  H   H151      1.0  0.57586  0.73632  0.51140  1.0000
  H   H152      1.0  0.61656  0.75593  0.55613  1.0000
  H   H153      1.0  0.59469  0.71241  0.53646  1.0000
  C   C293      1.0  0.77378  0.87373  0.41915  1.0000
  C   C294      1.0  0.76532  0.85299  0.34120  1.0000
  C   C295      1.0  0.76611  0.91436  0.33798  1.0000
  N   N44       1.0  0.77289  0.90269  0.41460  1.0000
  C   C296      1.0  0.77912  0.86430  0.51049  1.0000
  H   H154      1.0  0.77919  0.84089  0.51132  1.0000
  H   H155      1.0  0.75952  0.86196  0.55574  1.0000
  H   H156      1.0  0.80305  0.88362  0.53642  1.0000
  C   C297      1.0  0.64214  0.90155  0.41913  1.0000
  C   C298      1.0  0.66291  0.91386  0.34126  1.0000
  C   C299      1.0  0.60147  0.85308  0.33816  1.0000
  N   N45       1.0  0.61323  0.87166  0.41458  1.0000
  C   C300      1.0  0.65158  0.91624  0.51054  1.0000
  H   H157      1.0  0.67497  0.93975  0.51140  1.0000
  H   H158      1.0  0.65398  0.89897  0.55561  1.0000
  H   H159      1.0  0.63224  0.92078  0.53667  1.0000
  C   C301      1.0  0.90587  0.76981  0.41926  1.0000
  C   C302      1.0  0.91815  0.76134  0.34139  1.0000
  C   C303      1.0  0.85728  0.76168  0.33864  1.0000
  N   N46       1.0  0.87593  0.76873  0.41492  1.0000
  C   C304      1.0  0.92076  0.77529  0.51047  1.0000
  H   H160      1.0  0.94430  0.77549  0.51109  1.0000
  H   H161      1.0  0.90361  0.75568  0.55588  1.0000
  H   H162      1.0  0.92527  0.79920  0.53631  1.0000
  C   C305      1.0  0.74616  0.63761  0.41906  1.0000
  C   C306      1.0  0.75471  0.65836  0.34113  1.0000
  C   C307      1.0  0.75437  0.59711  0.33865  1.0000
  N   N47       1.0  0.74732  0.60879  0.41481  1.0000
  C   C308      1.0  0.74074  0.64702  0.51034  1.0000
  H   H163      1.0  0.74047  0.67033  0.51102  1.0000
  H   H164      1.0  0.76041  0.64954  0.55562  1.0000
  H   H165      1.0  0.71687  0.62760  0.53635  1.0000
  C   C309      1.0  0.87840  0.61017  0.41903  1.0000
  C   C310      1.0  0.85761  0.59767  0.34126  1.0000
  C   C311      1.0  0.91872  0.65867  0.33781  1.0000
  N   N48       1.0  0.90720  0.64016  0.41440  1.0000
  C   C312      1.0  0.86905  0.59548  0.51047  1.0000
  H   H166      1.0  0.84579  0.57185  0.51130  1.0000
  H   H167      1.0  0.86646  0.61266  0.55546  1.0000
  H   H168      1.0  0.88854  0.59117  0.53667  1.0000
