data_image0
_chemical_formula_structural       C4H3CH3CHC4H3CH3CHC4H3CH3CHC4H3CH3CHC4H3CH3CHC4H3CH3CHC4H3CH3CHC4H3CH3CHC4H3CH3CHC4H3CH3CHC4H3CH3CHC4H3CH3CHC4H3CH3CHC4H3CH3CHC4H3CH3CHC4H3CH3CHC4H3CH3CHC4H3CH3CHC4H3CH3CHC4H3CH3CHC4H3CH3CHC4H3CH3CHC4H3CH3CHC4H3CH3CHC4H3CH3CHC4H3CH3CHC4H3CH3CHC4H3CH3CHC4H3CH3CHC4H3CH3CHC4H3CH3CHC4H3CH3CHC4H3CH3CHC4H3CH3CHC4H3CH3CHC4H3CH3CHC6H3N3C6H3N3C6H3N3C6H3N3C6H3N3C6H3N3C6H3N3C6H3N3C6H3N3C6H3N3C6H3N3C6H3N3C6H3N3C6H3N3C6H3N3C6H3N3C6H3N3C6H3N3C6H3N3C6H3N3C6H3N3C6H3N3C6H3N3C6H3N3C4H3CH3CHC4H3CH3CHC4H3CH3CHC4H3CH3CHC4H3CH3CHC4H3CH3CHC4H3CH3CHC4H3CH3CHC4H3CH3CHC4H3CH3CHC4H3CH3CHC4H3CH3CHC4H3CH3CHC4H3CH3CHC4H3CH3CHC4H3CH3CHC4H3CH3CHC4H3CH3CHC4H3CH3CHC4H3CH3CHC4H3CH3CHC4H3CH3CHC4H3CH3CHC4H3CH3CHC4H3CH3CHC4H3CH3CHC4H3CH3CHC4H3CH3CHC4H3CH3CHC4H3CH3CHC4H3CH3CHC4H3CH3CHC4H3CH3CHC4H3CH3CHC4H3CH3CHC4H3CH3CH
_chemical_formula_sum              "C576 H576 N72"
_cell_length_a       84.1311
_cell_length_b       84.1311
_cell_length_c       14.8396
_cell_angle_alpha    90
_cell_angle_beta     90
_cell_angle_gamma    120

_space_group_name_H-M_alt    "P 1"
_space_group_IT_number       1

loop_
  _space_group_symop_operation_xyz
  'x, y, z'

loop_
  _atom_site_type_symbol
  _atom_site_label
  _atom_site_symmetry_multiplicity
  _atom_site_fract_x
  _atom_site_fract_y
  _atom_site_fract_z
  _atom_site_occupancy
  C   C1        1.0  0.12728  0.41031  0.34205  1.0000
  C   C2        1.0  0.12999  0.42099  0.26270  1.0000
  C   C3        1.0  0.13970  0.44060  0.26857  1.0000
  C   C4        1.0  0.14491  0.45256  0.18603  1.0000
  H   H1        1.0  0.14037  0.44534  0.12221  1.0000
  H   H2        1.0  0.15982  0.46102  0.18156  1.0000
  H   H3        1.0  0.13901  0.46152  0.19053  1.0000
  C   C5        1.0  0.12325  0.41171  0.17310  1.0000
  H   H4        1.0  0.11480  0.39682  0.17678  1.0000
  H   H5        1.0  0.13489  0.41488  0.12929  1.0000
  H   H6        1.0  0.11465  0.41647  0.14156  1.0000
  C   C6        1.0  0.12457  0.39261  0.33276  1.0000
  H   H7        1.0  0.13548  0.39176  0.31464  1.0000
  C   C7        1.0  0.60319  0.71967  0.34206  1.0000
  C   C8        1.0  0.59252  0.71170  0.26270  1.0000
  C   C9        1.0  0.57290  0.70180  0.26856  1.0000
  C   C10       1.0  0.56093  0.69506  0.18602  1.0000
  H   H8        1.0  0.56816  0.69776  0.12219  1.0000
  H   H9        1.0  0.55247  0.70151  0.18162  1.0000
  H   H10       1.0  0.55199  0.68021  0.19045  1.0000
  C   C11       1.0  0.60178  0.71421  0.17310  1.0000
  H   H11       1.0  0.61667  0.72063  0.17678  1.0000
  H   H12       1.0  0.59864  0.72270  0.12929  1.0000
  H   H13       1.0  0.59700  0.70085  0.14157  1.0000
  C   C12       1.0  0.62089  0.73464  0.33264  1.0000
  H   H14       1.0  0.62175  0.74640  0.31421  1.0000
  C   C13       1.0  0.29384  0.88623  0.34212  1.0000
  C   C14       1.0  0.30179  0.88349  0.26274  1.0000
  C   C15       1.0  0.31167  0.87376  0.26858  1.0000
  C   C16       1.0  0.31840  0.86852  0.18602  1.0000
  H   H15       1.0  0.31569  0.87304  0.12220  1.0000
  H   H16       1.0  0.31195  0.85361  0.18166  1.0000
  H   H17       1.0  0.33325  0.87442  0.19041  1.0000
  C   C17       1.0  0.29926  0.89023  0.17313  1.0000
  H   H18       1.0  0.29284  0.89870  0.17681  1.0000
  H   H19       1.0  0.29076  0.87859  0.12938  1.0000
  H   H20       1.0  0.31261  0.89880  0.14153  1.0000
  C   C18       1.0  0.27886  0.88894  0.33275  1.0000
  H   H21       1.0  0.26710  0.87804  0.31456  1.0000
  C   C19       1.0  0.88893  0.60049  0.34202  1.0000
  C   C20       1.0  0.88622  0.58982  0.26266  1.0000
  C   C21       1.0  0.87651  0.57020  0.26849  1.0000
  C   C22       1.0  0.87131  0.55824  0.18596  1.0000
  H   H22       1.0  0.87585  0.56547  0.12215  1.0000
  H   H23       1.0  0.85640  0.54978  0.18148  1.0000
  H   H24       1.0  0.87721  0.54929  0.19047  1.0000
  C   C23       1.0  0.89297  0.59909  0.17306  1.0000
  H   H25       1.0  0.90141  0.61399  0.17676  1.0000
  H   H26       1.0  0.88133  0.59593  0.12926  1.0000
  H   H27       1.0  0.90157  0.59434  0.14153  1.0000
  C   C24       1.0  0.89165  0.61819  0.33275  1.0000
  H   H28       1.0  0.88074  0.61905  0.31456  1.0000
  C   C25       1.0  0.41302  0.29114  0.34205  1.0000
  C   C26       1.0  0.42370  0.29911  0.26270  1.0000
  C   C27       1.0  0.44331  0.30901  0.26857  1.0000
  C   C28       1.0  0.45527  0.31577  0.18603  1.0000
  H   H29       1.0  0.44805  0.31308  0.12221  1.0000
  H   H30       1.0  0.46373  0.30932  0.18156  1.0000
  H   H31       1.0  0.46423  0.33062  0.19053  1.0000
  C   C29       1.0  0.41442  0.29658  0.17309  1.0000
  H   H32       1.0  0.39953  0.29013  0.17678  1.0000
  H   H33       1.0  0.41759  0.28810  0.12929  1.0000
  H   H34       1.0  0.41918  0.30993  0.14155  1.0000
  C   C30       1.0  0.39532  0.27615  0.33275  1.0000
  H   H35       1.0  0.39447  0.26439  0.31465  1.0000
  C   C31       1.0  0.72237  0.12458  0.34207  1.0000
  C   C32       1.0  0.71440  0.12729  0.26271  1.0000
  C   C33       1.0  0.70451  0.13701  0.26857  1.0000
  C   C34       1.0  0.69777  0.14223  0.18603  1.0000
  H   H36       1.0  0.70047  0.13771  0.12221  1.0000
  H   H37       1.0  0.70422  0.15715  0.18163  1.0000
  H   H38       1.0  0.68292  0.13633  0.19046  1.0000
  C   C35       1.0  0.71691  0.12053  0.17311  1.0000
  H   H39       1.0  0.72333  0.11206  0.17679  1.0000
  H   H40       1.0  0.72540  0.13217  0.12930  1.0000
  H   H41       1.0  0.70356  0.11195  0.14157  1.0000
  C   C36       1.0  0.73735  0.12186  0.33264  1.0000
  H   H42       1.0  0.74910  0.13275  0.31421  1.0000
  C   C37       1.0  0.45232  0.14267  0.32853  1.0000
  C   C38       1.0  0.44119  0.13713  0.24931  1.0000
  C   C39       1.0  0.42169  0.12883  0.25712  1.0000
  C   C40       1.0  0.44993  0.14085  0.15745  1.0000
  H   H43       1.0  0.46462  0.14573  0.15872  1.0000
  H   H44       1.0  0.44797  0.15115  0.12246  1.0000
  H   H45       1.0  0.44382  0.12827  0.11769  1.0000
  C   C41       1.0  0.41048  0.12555  0.17300  1.0000
  H   H46       1.0  0.39581  0.11960  0.18395  1.0000
  H   H47       1.0  0.41205  0.11611  0.12857  1.0000
  H   H48       1.0  0.41506  0.13851  0.13771  1.0000
  C   C42       1.0  0.47040  0.15723  0.32063  1.0000
  H   H49       1.0  0.47161  0.16846  0.29188  1.0000
  C   C43       1.0  0.70111  0.56120  0.32891  1.0000
  C   C44       1.0  0.70676  0.57234  0.24968  1.0000
  C   C45       1.0  0.71795  0.59183  0.25759  1.0000
  C   C46       1.0  0.70177  0.56361  0.15777  1.0000
  H   H50       1.0  0.69195  0.54893  0.15894  1.0000
  H   H51       1.0  0.71405  0.56558  0.12290  1.0000
  H   H52       1.0  0.69532  0.56974  0.11795  1.0000
  C   C47       1.0  0.72593  0.60306  0.17354  1.0000
  H   H53       1.0  0.73462  0.61773  0.18455  1.0000
  H   H54       1.0  0.71493  0.60149  0.12897  1.0000
  H   H55       1.0  0.73432  0.59850  0.13835  1.0000
  C   C48       1.0  0.69762  0.54313  0.32087  1.0000
  H   H56       1.0  0.70767  0.54195  0.29228  1.0000
  C   C49       1.0  0.87086  0.31238  0.32874  1.0000
  C   C50       1.0  0.87638  0.30674  0.24954  1.0000
  C   C51       1.0  0.88467  0.29554  0.25740  1.0000
  C   C52       1.0  0.87267  0.31175  0.15763  1.0000
  H   H57       1.0  0.86781  0.32158  0.15881  1.0000
  H   H58       1.0  0.86236  0.29949  0.12270  1.0000
  H   H59       1.0  0.88525  0.31820  0.11785  1.0000
  C   C53       1.0  0.88793  0.28757  0.17332  1.0000
  H   H60       1.0  0.89388  0.27886  0.18430  1.0000
  H   H61       1.0  0.89737  0.29857  0.12878  1.0000
  H   H62       1.0  0.87496  0.27919  0.13812  1.0000
  C   C54       1.0  0.85631  0.31589  0.32068  1.0000
  H   H63       1.0  0.84509  0.30587  0.29187  1.0000
  C   C55       1.0  0.56390  0.86816  0.32877  1.0000
  C   C56       1.0  0.57505  0.87369  0.24957  1.0000
  C   C57       1.0  0.59454  0.88198  0.25744  1.0000
  C   C58       1.0  0.56633  0.86999  0.15767  1.0000
  H   H64       1.0  0.55165  0.86513  0.15884  1.0000
  H   H65       1.0  0.56828  0.85968  0.12269  1.0000
  H   H66       1.0  0.57246  0.88257  0.11792  1.0000
  C   C59       1.0  0.60577  0.88524  0.17337  1.0000
  H   H67       1.0  0.62043  0.89118  0.18438  1.0000
  H   H68       1.0  0.60421  0.89468  0.12885  1.0000
  H   H69       1.0  0.60118  0.87227  0.13816  1.0000
  C   C60       1.0  0.54582  0.85361  0.32068  1.0000
  H   H70       1.0  0.54462  0.84239  0.29188  1.0000
  C   C61       1.0  0.31505  0.44962  0.32853  1.0000
  C   C62       1.0  0.30946  0.43849  0.24930  1.0000
  C   C63       1.0  0.29827  0.41899  0.25712  1.0000
  C   C64       1.0  0.31448  0.44723  0.15744  1.0000
  H   H71       1.0  0.32429  0.46191  0.15870  1.0000
  H   H72       1.0  0.30222  0.44527  0.12246  1.0000
  H   H73       1.0  0.32095  0.44111  0.11768  1.0000
  C   C65       1.0  0.29033  0.40777  0.17300  1.0000
  H   H74       1.0  0.28162  0.39311  0.18395  1.0000
  H   H75       1.0  0.30134  0.40935  0.12857  1.0000
  H   H76       1.0  0.28195  0.41235  0.13771  1.0000
  C   C66       1.0  0.31858  0.46770  0.32062  1.0000
  H   H77       1.0  0.30855  0.46891  0.29186  1.0000
  C   C67       1.0  0.14532  0.69841  0.32886  1.0000
  C   C68       1.0  0.13983  0.70405  0.24962  1.0000
  C   C69       1.0  0.13154  0.71525  0.25751  1.0000
  C   C70       1.0  0.14356  0.69906  0.15772  1.0000
  H   H78       1.0  0.14843  0.68924  0.15890  1.0000
  H   H79       1.0  0.15388  0.71133  0.12284  1.0000
  H   H80       1.0  0.13099  0.69261  0.11789  1.0000
  C   C71       1.0  0.12828  0.72323  0.17345  1.0000
  H   H81       1.0  0.12231  0.73193  0.18445  1.0000
  H   H82       1.0  0.11885  0.71223  0.12890  1.0000
  H   H83       1.0  0.14124  0.73162  0.13825  1.0000
  C   C72       1.0  0.15989  0.69492  0.32083  1.0000
  H   H84       1.0  0.17113  0.70496  0.29223  1.0000
  C   C73       1.0  0.24965  0.52297  0.34897  1.0000
  C   C74       1.0  0.25622  0.51875  0.26903  1.0000
  C   C75       1.0  0.27336  0.51907  0.27140  1.0000
  C   C76       1.0  0.24504  0.51310  0.18373  1.0000
  H   H85       1.0  0.23242  0.51368  0.18691  1.0000
  H   H86       1.0  0.24118  0.49902  0.16631  1.0000
  H   H87       1.0  0.25302  0.52217  0.12863  1.0000
  C   C77       1.0  0.27978  0.51353  0.18872  1.0000
  H   H88       1.0  0.29315  0.51459  0.19519  1.0000
  H   H89       1.0  0.28097  0.52234  0.13217  1.0000
  H   H90       1.0  0.27002  0.49930  0.17144  1.0000
  C   C78       1.0  0.23106  0.51702  0.35665  1.0000
  H   H91       1.0  0.22329  0.50469  0.38404  1.0000
  C   C79       1.0  0.49055  0.72940  0.34891  1.0000
  C   C80       1.0  0.49476  0.74018  0.26897  1.0000
  C   C81       1.0  0.49445  0.75701  0.27137  1.0000
  C   C82       1.0  0.50038  0.73464  0.18362  1.0000
  H   H92       1.0  0.49977  0.72142  0.18677  1.0000
  H   H93       1.0  0.51446  0.74483  0.16615  1.0000
  H   H94       1.0  0.49130  0.73355  0.12857  1.0000
  C   C83       1.0  0.50001  0.76898  0.18873  1.0000
  H   H95       1.0  0.49899  0.78131  0.19526  1.0000
  H   H96       1.0  0.49119  0.76137  0.13218  1.0000
  H   H97       1.0  0.51423  0.77341  0.17142  1.0000
  C   C84       1.0  0.49650  0.71676  0.35657  1.0000
  H   H98       1.0  0.50883  0.72132  0.38390  1.0000
  C   C85       1.0  0.28412  0.76384  0.34888  1.0000
  C   C86       1.0  0.27332  0.75728  0.26898  1.0000
  C   C87       1.0  0.25650  0.74016  0.27141  1.0000
  C   C88       1.0  0.27886  0.76846  0.18366  1.0000
  H   H99       1.0  0.29208  0.78106  0.18681  1.0000
  H   H100      1.0  0.26867  0.77235  0.16628  1.0000
  H   H101      1.0  0.27994  0.76047  0.12856  1.0000
  C   C89       1.0  0.24452  0.73375  0.18879  1.0000
  H   H102      1.0  0.23218  0.72039  0.19533  1.0000
  H   H103      1.0  0.25212  0.73253  0.13223  1.0000
  H   H104      1.0  0.24009  0.74354  0.17151  1.0000
  C   C90       1.0  0.29676  0.78243  0.35663  1.0000
  H   H105      1.0  0.29221  0.79021  0.38405  1.0000
  C   C91       1.0  0.76655  0.48783  0.34891  1.0000
  C   C92       1.0  0.76000  0.49209  0.26901  1.0000
  C   C93       1.0  0.74287  0.49178  0.27144  1.0000
  C   C94       1.0  0.77118  0.49774  0.18370  1.0000
  H   H106      1.0  0.78378  0.49713  0.18684  1.0000
  H   H107      1.0  0.77506  0.51183  0.16637  1.0000
  H   H108      1.0  0.76319  0.48868  0.12857  1.0000
  C   C95       1.0  0.73645  0.49735  0.18882  1.0000
  H   H109      1.0  0.72309  0.49631  0.19533  1.0000
  H   H110      1.0  0.73525  0.48854  0.13224  1.0000
  H   H111      1.0  0.74624  0.51157  0.17156  1.0000
  C   C96       1.0  0.78514  0.49380  0.35659  1.0000
  H   H112      1.0  0.79291  0.50612  0.38395  1.0000
  C   C97       1.0  0.52568  0.28143  0.34897  1.0000
  C   C98       1.0  0.52145  0.27063  0.26903  1.0000
  C   C99       1.0  0.52177  0.25382  0.27140  1.0000
  C   C100      1.0  0.51580  0.27616  0.18372  1.0000
  H   H113      1.0  0.51638  0.28937  0.18691  1.0000
  H   H114      1.0  0.50172  0.26595  0.16631  1.0000
  H   H115      1.0  0.52488  0.27726  0.12863  1.0000
  C   C101      1.0  0.51623  0.24185  0.18872  1.0000
  H   H116      1.0  0.51729  0.22954  0.19519  1.0000
  H   H117      1.0  0.52504  0.24948  0.13217  1.0000
  H   H118      1.0  0.50200  0.23739  0.17144  1.0000
  C   C102      1.0  0.51972  0.29406  0.35665  1.0000
  H   H119      1.0  0.50740  0.28951  0.38404  1.0000
  C   C103      1.0  0.73210  0.24696  0.34889  1.0000
  C   C104      1.0  0.74288  0.25352  0.26894  1.0000
  C   C105      1.0  0.75970  0.27066  0.27131  1.0000
  C   C106      1.0  0.73733  0.24235  0.18360  1.0000
  H   H120      1.0  0.72412  0.22975  0.18677  1.0000
  H   H121      1.0  0.74753  0.23847  0.16612  1.0000
  H   H122      1.0  0.73624  0.25035  0.12854  1.0000
  C   C107      1.0  0.77167  0.27707  0.18866  1.0000
  H   H123      1.0  0.78400  0.29042  0.19517  1.0000
  H   H124      1.0  0.76406  0.27828  0.13212  1.0000
  H   H125      1.0  0.77611  0.26728  0.17135  1.0000
  C   C108      1.0  0.71946  0.22836  0.35657  1.0000
  H   H126      1.0  0.72402  0.22059  0.38391  1.0000
  C   C109      1.0  0.18269  0.57574  0.34105  1.0000
  C   C110      1.0  0.17857  0.58295  0.26294  1.0000
  C   C111      1.0  0.17964  0.60045  0.26749  1.0000
  C   C112      1.0  0.17733  0.60965  0.18554  1.0000
  H   H127      1.0  0.17415  0.60183  0.12335  1.0000
  H   H128      1.0  0.18995  0.62260  0.17302  1.0000
  H   H129      1.0  0.16616  0.61247  0.19708  1.0000
  C   C113      1.0  0.17375  0.57255  0.17558  1.0000
  H   H130      1.0  0.17206  0.55886  0.18045  1.0000
  H   H131      1.0  0.18444  0.58016  0.12567  1.0000
  H   H132      1.0  0.16067  0.57058  0.15085  1.0000
  C   C114      1.0  0.18868  0.56313  0.32883  1.0000
  H   H133      1.0  0.20109  0.56810  0.30180  1.0000
  C   C115      1.0  0.43775  0.60965  0.34103  1.0000
  C   C116      1.0  0.43055  0.59832  0.26294  1.0000
  C   C117      1.0  0.41306  0.58188  0.26753  1.0000
  C   C118      1.0  0.40386  0.57037  0.18562  1.0000
  H   H134      1.0  0.41168  0.57500  0.12341  1.0000
  H   H135      1.0  0.39090  0.57002  0.17309  1.0000
  H   H136      1.0  0.40105  0.55638  0.19718  1.0000
  C   C119      1.0  0.44095  0.60392  0.17557  1.0000
  H   H137      1.0  0.45463  0.61593  0.18042  1.0000
  H   H138      1.0  0.43331  0.60698  0.12568  1.0000
  H   H139      1.0  0.44294  0.59283  0.15083  1.0000
  C   C120      1.0  0.45036  0.62826  0.32892  1.0000
  H   H140      1.0  0.44538  0.63570  0.30210  1.0000
  C   C121      1.0  0.40386  0.83081  0.34099  1.0000
  C   C122      1.0  0.41520  0.83495  0.26294  1.0000
  C   C123      1.0  0.43164  0.83390  0.26759  1.0000
  C   C124      1.0  0.44315  0.83620  0.18569  1.0000
  H   H141      1.0  0.43852  0.83938  0.12346  1.0000
  H   H142      1.0  0.44350  0.82359  0.17319  1.0000
  H   H143      1.0  0.45714  0.84738  0.19725  1.0000
  C   C125      1.0  0.40961  0.83975  0.17556  1.0000
  H   H144      1.0  0.39760  0.84143  0.18040  1.0000
  H   H145      1.0  0.40655  0.82906  0.12567  1.0000
  H   H146      1.0  0.42071  0.85284  0.15084  1.0000
  C   C126      1.0  0.38525  0.82481  0.32884  1.0000
  H   H147      1.0  0.37782  0.81240  0.30192  1.0000
  C   C127      1.0  0.83351  0.43507  0.34112  1.0000
  C   C128      1.0  0.83762  0.42785  0.26304  1.0000
  C   C129      1.0  0.83656  0.41035  0.26767  1.0000
  C   C130      1.0  0.83883  0.40113  0.18573  1.0000
  H   H148      1.0  0.84197  0.40892  0.12347  1.0000
  H   H149      1.0  0.82622  0.38816  0.17339  1.0000
  H   H150      1.0  0.85002  0.39833  0.19715  1.0000
  C   C131      1.0  0.84243  0.43823  0.17565  1.0000
  H   H151      1.0  0.84414  0.45193  0.18048  1.0000
  H   H152      1.0  0.83172  0.43062  0.12579  1.0000
  H   H153      1.0  0.85550  0.44019  0.15085  1.0000
  C   C132      1.0  0.82752  0.44768  0.32887  1.0000
  H   H154      1.0  0.81512  0.44271  0.30186  1.0000
  C   C133      1.0  0.57845  0.40116  0.34105  1.0000
  C   C134      1.0  0.58566  0.41249  0.26293  1.0000
  C   C135      1.0  0.60316  0.42893  0.26749  1.0000
  C   C136      1.0  0.61236  0.44043  0.18553  1.0000
  H   H155      1.0  0.60453  0.43579  0.12335  1.0000
  H   H156      1.0  0.62531  0.44077  0.17298  1.0000
  H   H157      1.0  0.61518  0.45442  0.19709  1.0000
  C   C137      1.0  0.57525  0.40690  0.17559  1.0000
  H   H158      1.0  0.56156  0.39491  0.18046  1.0000
  H   H159      1.0  0.58287  0.40383  0.12566  1.0000
  H   H160      1.0  0.57328  0.41801  0.15088  1.0000
  C   C138      1.0  0.56584  0.38255  0.32883  1.0000
  H   H161      1.0  0.57081  0.37512  0.30179  1.0000
  C   C139      1.0  0.61236  0.18000  0.34103  1.0000
  C   C140      1.0  0.60103  0.17588  0.26294  1.0000
  C   C141      1.0  0.58457  0.17692  0.26753  1.0000
  C   C142      1.0  0.57307  0.17461  0.18562  1.0000
  H   H162      1.0  0.57770  0.17142  0.12341  1.0000
  H   H163      1.0  0.57272  0.18722  0.17310  1.0000
  H   H164      1.0  0.55908  0.16343  0.19719  1.0000
  C   C143      1.0  0.60662  0.17108  0.17558  1.0000
  H   H165      1.0  0.61864  0.16941  0.18043  1.0000
  H   H166      1.0  0.60968  0.18176  0.12568  1.0000
  H   H167      1.0  0.59553  0.15799  0.15084  1.0000
  C   C144      1.0  0.63096  0.18601  0.32893  1.0000
  H   H168      1.0  0.63840  0.19843  0.30210  1.0000
  C   C145      1.0  0.02739  0.30151  0.34070  1.0000
  C   C146      1.0  0.01688  0.29790  0.25981  1.0000
  C   C147      1.0  0.99718  0.28805  0.26321  1.0000
  C   C148      1.0  0.02641  0.30499  0.17078  1.0000
  H   H169      1.0  0.04131  0.31149  0.17368  1.0000
  H   H170      1.0  0.02317  0.31510  0.14368  1.0000
  H   H171      1.0  0.02194  0.29370  0.12300  1.0000
  C   C149      1.0  0.98652  0.28559  0.17793  1.0000
  H   H172      1.0  0.97168  0.27773  0.18563  1.0000
  H   H173      1.0  0.98992  0.27825  0.12797  1.0000
  H   H174      1.0  0.98986  0.29896  0.15079  1.0000
  C   C150      1.0  0.04574  0.31611  0.34203  1.0000
  H   H175      1.0  0.04706  0.32850  0.34087  1.0000
  C   C151      1.0  0.71199  0.72857  0.34065  1.0000
  C   C152      1.0  0.71563  0.72171  0.25975  1.0000
  C   C153      1.0  0.72548  0.71186  0.26317  1.0000
  C   C154      1.0  0.70858  0.72417  0.17069  1.0000
  H   H176      1.0  0.70209  0.73258  0.17358  1.0000
  H   H177      1.0  0.69847  0.71084  0.14347  1.0000
  H   H178      1.0  0.71988  0.73100  0.12300  1.0000
  C   C155      1.0  0.72794  0.70365  0.17791  1.0000
  H   H179      1.0  0.73578  0.69665  0.18564  1.0000
  H   H180      1.0  0.73530  0.71439  0.12799  1.0000
  H   H181      1.0  0.71457  0.69364  0.15069  1.0000
  C   C156      1.0  0.69740  0.73233  0.34191  1.0000
  H   H182      1.0  0.68501  0.72126  0.34051  1.0000
  C   C157      1.0  0.28495  0.98613  0.34080  1.0000
  C   C158      1.0  0.29180  0.99660  0.25986  1.0000
  C   C159      1.0  0.30164  0.01630  0.26320  1.0000
  C   C160      1.0  0.28936  0.98706  0.17089  1.0000
  H   H183      1.0  0.28097  0.97217  0.17389  1.0000
  H   H184      1.0  0.30270  0.99031  0.14373  1.0000
  H   H185      1.0  0.28251  0.99150  0.12311  1.0000
  C   C161      1.0  0.30982  0.02696  0.17788  1.0000
  H   H186      1.0  0.31680  0.04180  0.18554  1.0000
  H   H187      1.0  0.29907  0.02354  0.12797  1.0000
  H   H188      1.0  0.31986  0.02363  0.15071  1.0000
  C   C162      1.0  0.28119  0.96778  0.34234  1.0000
  H   H189      1.0  0.29226  0.96646  0.34176  1.0000
  C   C163      1.0  0.98884  0.70928  0.34072  1.0000
  C   C164      1.0  0.99933  0.71289  0.25979  1.0000
  C   C165      1.0  0.01902  0.72274  0.26319  1.0000
  C   C166      1.0  0.98980  0.70579  0.17078  1.0000
  H   H190      1.0  0.97490  0.69929  0.17370  1.0000
  H   H191      1.0  0.99303  0.69568  0.14368  1.0000
  H   H192      1.0  0.99425  0.71708  0.12299  1.0000
  C   C167      1.0  0.02969  0.72521  0.17790  1.0000
  H   H193      1.0  0.04453  0.73308  0.18558  1.0000
  H   H194      1.0  0.02628  0.73255  0.12796  1.0000
  H   H195      1.0  0.02635  0.71184  0.15074  1.0000
  C   C168      1.0  0.97049  0.69469  0.34208  1.0000
  H   H196      1.0  0.96917  0.68229  0.34101  1.0000
  C   C169      1.0  0.30422  0.28224  0.34069  1.0000
  C   C170      1.0  0.30061  0.28912  0.25979  1.0000
  C   C171      1.0  0.29076  0.29897  0.26318  1.0000
  C   C172      1.0  0.30770  0.28669  0.17077  1.0000
  H   H197      1.0  0.31420  0.27829  0.17368  1.0000
  H   H198      1.0  0.31781  0.30003  0.14367  1.0000
  H   H199      1.0  0.29642  0.27986  0.12298  1.0000
  C   C173      1.0  0.28830  0.30718  0.17789  1.0000
  H   H200      1.0  0.28044  0.31416  0.18557  1.0000
  H   H201      1.0  0.28097  0.29644  0.12794  1.0000
  H   H202      1.0  0.30167  0.31721  0.15075  1.0000
  C   C174      1.0  0.31882  0.27848  0.34205  1.0000
  H   H203      1.0  0.33121  0.28955  0.34093  1.0000
  C   C175      1.0  0.73128  0.02469  0.34066  1.0000
  C   C176      1.0  0.72442  0.01419  0.25976  1.0000
  C   C177      1.0  0.71457  0.99449  0.26317  1.0000
  C   C178      1.0  0.72689  0.02371  0.17070  1.0000
  H   H204      1.0  0.73530  0.03861  0.17360  1.0000
  H   H205      1.0  0.71355  0.02048  0.14349  1.0000
  H   H206      1.0  0.73372  0.01924  0.12300  1.0000
  C   C179      1.0  0.70637  0.98382  0.17790  1.0000
  H   H207      1.0  0.69937  0.96898  0.18563  1.0000
  H   H208      1.0  0.71711  0.98721  0.12798  1.0000
  H   H209      1.0  0.69635  0.98717  0.15069  1.0000
  C   C180      1.0  0.73504  0.04304  0.34193  1.0000
  H   H210      1.0  0.72397  0.04436  0.34056  1.0000
  C   C181      1.0  0.18777  0.33128  0.34095  1.0000
  C   C182      1.0  0.17963  0.33309  0.25992  1.0000
  C   C183      1.0  0.16251  0.33296  0.26311  1.0000
  C   C184      1.0  0.18938  0.33597  0.17129  1.0000
  H   H211      1.0  0.20175  0.33491  0.17476  1.0000
  H   H212      1.0  0.19335  0.34955  0.14465  1.0000
  H   H213      1.0  0.18041  0.32558  0.12296  1.0000
  C   C185      1.0  0.15505  0.33645  0.17796  1.0000
  H   H214      1.0  0.14189  0.33582  0.18550  1.0000
  H   H215      1.0  0.15293  0.32618  0.12734  1.0000
  H   H216      1.0  0.16468  0.35006  0.15178  1.0000
  C   C186      1.0  0.20693  0.33856  0.34405  1.0000
  H   H217      1.0  0.21400  0.35210  0.34986  1.0000
  C   C187      1.0  0.68227  0.85919  0.34027  1.0000
  C   C188      1.0  0.68047  0.84920  0.25936  1.0000
  C   C189      1.0  0.68056  0.83219  0.26290  1.0000
  C   C190      1.0  0.67767  0.85606  0.17050  1.0000
  H   H218      1.0  0.67882  0.86954  0.17369  1.0000
  H   H219      1.0  0.66410  0.84650  0.14378  1.0000
  H   H220      1.0  0.68807  0.85740  0.12236  1.0000
  C   C191      1.0  0.67705  0.82119  0.17790  1.0000
  H   H221      1.0  0.67761  0.80862  0.18564  1.0000
  H   H222      1.0  0.68735  0.82929  0.12730  1.0000
  H   H223      1.0  0.66346  0.81726  0.15155  1.0000
  C   C192      1.0  0.67497  0.87106  0.34262  1.0000
  H   H224      1.0  0.66138  0.86455  0.34544  1.0000
  C   C193      1.0  0.15432  0.82576  0.33996  1.0000
  C   C194      1.0  0.16432  0.83401  0.25915  1.0000
  C   C195      1.0  0.18133  0.85110  0.26278  1.0000
  C   C196      1.0  0.15745  0.82439  0.17017  1.0000
  H   H225      1.0  0.14397  0.81207  0.17325  1.0000
  H   H226      1.0  0.16701  0.82037  0.14337  1.0000
  H   H227      1.0  0.15613  0.83348  0.12216  1.0000
  C   C197      1.0  0.19235  0.85861  0.17784  1.0000
  H   H228      1.0  0.20493  0.87172  0.18567  1.0000
  H   H229      1.0  0.18427  0.86084  0.12725  1.0000
  H   H230      1.0  0.19626  0.84894  0.15142  1.0000
  C   C198      1.0  0.14245  0.80660  0.34206  1.0000
  H   H231      1.0  0.14896  0.79952  0.34372  1.0000
  C   C199      1.0  0.82847  0.67955  0.33975  1.0000
  C   C200      1.0  0.83676  0.67785  0.25895  1.0000
  C   C201      1.0  0.85384  0.67791  0.26270  1.0000
  C   C202      1.0  0.82719  0.67516  0.16990  1.0000
  H   H232      1.0  0.81488  0.67635  0.17292  1.0000
  H   H233      1.0  0.82316  0.66160  0.14292  1.0000
  H   H234      1.0  0.83630  0.68558  0.12204  1.0000
  C   C203      1.0  0.86137  0.67441  0.17778  1.0000
  H   H235      1.0  0.87446  0.67491  0.18571  1.0000
  H   H236      1.0  0.86363  0.68475  0.12727  1.0000
  H   H237      1.0  0.85169  0.66085  0.15123  1.0000
  C   C204      1.0  0.80931  0.67225  0.34159  1.0000
  H   H238      1.0  0.80222  0.65865  0.34217  1.0000
  C   C205      1.0  0.33399  0.15162  0.34095  1.0000
  C   C206      1.0  0.33580  0.16157  0.25992  1.0000
  C   C207      1.0  0.33567  0.17856  0.26310  1.0000
  C   C208      1.0  0.33869  0.15470  0.17130  1.0000
  H   H239      1.0  0.33763  0.14127  0.17478  1.0000
  H   H240      1.0  0.35226  0.16431  0.14467  1.0000
  H   H241      1.0  0.32829  0.15328  0.12296  1.0000
  C   C209      1.0  0.33916  0.18952  0.17796  1.0000
  H   H242      1.0  0.33853  0.20205  0.18548  1.0000
  H   H243      1.0  0.32889  0.18136  0.12733  1.0000
  H   H244      1.0  0.35277  0.19349  0.15178  1.0000
  C   C210      1.0  0.34126  0.13973  0.34407  1.0000
  H   H245      1.0  0.35481  0.14621  0.34996  1.0000
  C   C211      1.0  0.86189  0.18503  0.34027  1.0000
  C   C212      1.0  0.85191  0.17684  0.25936  1.0000
  C   C213      1.0  0.83490  0.15974  0.26289  1.0000
  C   C214      1.0  0.85878  0.18650  0.17050  1.0000
  H   H246      1.0  0.87225  0.19883  0.17369  1.0000
  H   H247      1.0  0.84921  0.19051  0.14376  1.0000
  H   H248      1.0  0.86012  0.17744  0.12237  1.0000
  C   C215      1.0  0.82390  0.15225  0.17789  1.0000
  H   H249      1.0  0.81133  0.13912  0.18563  1.0000
  H   H250      1.0  0.83201  0.15005  0.12730  1.0000
  H   H251      1.0  0.81997  0.16191  0.15153  1.0000
  C   C216      1.0  0.87376  0.20420  0.34262  1.0000
  H   H252      1.0  0.86725  0.21128  0.34546  1.0000
  C   C217      1.0  0.20625  0.52222  0.33313  1.0000
  C   C218      1.0  0.20201  0.53637  0.34066  1.0000
  C   C219      1.0  0.18359  0.53265  0.34232  1.0000
  C   C220      1.0  0.16931  0.51405  0.34134  1.0000
  C   C221      1.0  0.17305  0.49944  0.33488  1.0000
  C   C222      1.0  0.19161  0.50398  0.32618  1.0000
  H   H253      1.0  0.15595  0.51108  0.34526  1.0000
  H   H254      1.0  0.19457  0.49375  0.31530  1.0000
  H   H255      1.0  0.21262  0.54959  0.34585  1.0000
  N   N1        1.0  0.22387  0.52664  0.33089  1.0000
  N   N2        1.0  0.17920  0.54593  0.34907  1.0000
  N   N3        1.0  0.15928  0.48189  0.33377  1.0000
  C   C223      1.0  0.49129  0.68674  0.33315  1.0000
  C   C224      1.0  0.47713  0.66834  0.34064  1.0000
  C   C225      1.0  0.48084  0.65364  0.34236  1.0000
  C   C226      1.0  0.49944  0.65796  0.34131  1.0000
  C   C227      1.0  0.51406  0.67631  0.33483  1.0000
  C   C228      1.0  0.50953  0.69033  0.32618  1.0000
  H   H256      1.0  0.50241  0.64756  0.34521  1.0000
  H   H257      1.0  0.51976  0.70352  0.31529  1.0000
  H   H258      1.0  0.46392  0.66574  0.34586  1.0000
  N   N4        1.0  0.48687  0.69995  0.33089  1.0000
  N   N5        1.0  0.46756  0.63598  0.34903  1.0000
  N   N6        1.0  0.53161  0.68009  0.33373  1.0000
  C   C229      1.0  0.32678  0.80724  0.33308  1.0000
  C   C230      1.0  0.34517  0.81149  0.34060  1.0000
  C   C231      1.0  0.35987  0.82991  0.34227  1.0000
  C   C232      1.0  0.35554  0.84418  0.34130  1.0000
  C   C233      1.0  0.33719  0.84044  0.33484  1.0000
  C   C234      1.0  0.32317  0.82189  0.32613  1.0000
  H   H259      1.0  0.36594  0.85755  0.34522  1.0000
  H   H260      1.0  0.30998  0.81892  0.31526  1.0000
  H   H261      1.0  0.34777  0.80088  0.34577  1.0000
  N   N7        1.0  0.31357  0.78962  0.33082  1.0000
  N   N8        1.0  0.37754  0.83430  0.34899  1.0000
  N   N9        1.0  0.33341  0.85422  0.33377  1.0000
  C   C235      1.0  0.80995  0.48859  0.33315  1.0000
  C   C236      1.0  0.81420  0.47444  0.34066  1.0000
  C   C237      1.0  0.83262  0.47816  0.34240  1.0000
  C   C238      1.0  0.84689  0.49676  0.34137  1.0000
  C   C239      1.0  0.84315  0.51137  0.33487  1.0000
  C   C240      1.0  0.82460  0.50684  0.32620  1.0000
  H   H262      1.0  0.86026  0.49973  0.34531  1.0000
  H   H263      1.0  0.82164  0.51706  0.31529  1.0000
  H   H264      1.0  0.80359  0.46123  0.34588  1.0000
  N   N10       1.0  0.79233  0.48417  0.33088  1.0000
  N   N11       1.0  0.83700  0.46488  0.34913  1.0000
  N   N12       1.0  0.85693  0.52893  0.33380  1.0000
  C   C241      1.0  0.52493  0.32408  0.33314  1.0000
  C   C242      1.0  0.53908  0.34247  0.34066  1.0000
  C   C243      1.0  0.53536  0.35717  0.34233  1.0000
  C   C244      1.0  0.51676  0.35285  0.34134  1.0000
  C   C245      1.0  0.50215  0.33450  0.33488  1.0000
  C   C246      1.0  0.50669  0.32048  0.32618  1.0000
  H   H265      1.0  0.51379  0.36324  0.34526  1.0000
  H   H266      1.0  0.49646  0.30729  0.31530  1.0000
  H   H267      1.0  0.55229  0.34508  0.34586  1.0000
  N   N13       1.0  0.52935  0.31087  0.33089  1.0000
  N   N14       1.0  0.54864  0.37484  0.34908  1.0000
  N   N15       1.0  0.48460  0.33072  0.33377  1.0000
  C   C247      1.0  0.68944  0.20356  0.33316  1.0000
  C   C248      1.0  0.67105  0.19932  0.34067  1.0000
  C   C249      1.0  0.65634  0.18090  0.34238  1.0000
  C   C250      1.0  0.66066  0.16662  0.34132  1.0000
  C   C251      1.0  0.67901  0.17036  0.33485  1.0000
  C   C252      1.0  0.69303  0.18891  0.32620  1.0000
  H   H268      1.0  0.65026  0.15326  0.34523  1.0000
  H   H269      1.0  0.70622  0.19187  0.31530  1.0000
  H   H270      1.0  0.66844  0.20993  0.34587  1.0000
  N   N16       1.0  0.70265  0.22118  0.33089  1.0000
  N   N17       1.0  0.63868  0.17652  0.34904  1.0000
  N   N18       1.0  0.68279  0.15658  0.33374  1.0000
  C   C253      1.0  0.52533  0.20459  0.34507  1.0000
  C   C254      1.0  0.53955  0.20038  0.34211  1.0000
  C   C255      1.0  0.53595  0.18201  0.34477  1.0000
  C   C256      1.0  0.51736  0.16768  0.34618  1.0000
  C   C257      1.0  0.50263  0.17132  0.34532  1.0000
  C   C258      1.0  0.50704  0.18991  0.34683  1.0000
  H   H271      1.0  0.51446  0.15432  0.34707  1.0000
  H   H272      1.0  0.49670  0.19290  0.34826  1.0000
  H   H273      1.0  0.55273  0.21106  0.33857  1.0000
  N   N19       1.0  0.52973  0.22219  0.34054  1.0000
  N   N20       1.0  0.54922  0.17751  0.34461  1.0000
  N   N21       1.0  0.48512  0.15741  0.34742  1.0000
  C   C259      1.0  0.69008  0.48820  0.34519  1.0000
  C   C260      1.0  0.67166  0.47398  0.34217  1.0000
  C   C261      1.0  0.65687  0.47757  0.34481  1.0000
  C   C262      1.0  0.66114  0.49616  0.34626  1.0000
  C   C263      1.0  0.67950  0.51089  0.34542  1.0000
  C   C264      1.0  0.69368  0.50649  0.34688  1.0000
  H   H274      1.0  0.65067  0.49904  0.34715  1.0000
  H   H275      1.0  0.70701  0.51683  0.34831  1.0000
  H   H276      1.0  0.66916  0.46079  0.33868  1.0000
  N   N22       1.0  0.70329  0.48381  0.34062  1.0000
  N   N23       1.0  0.63911  0.46429  0.34469  1.0000
  N   N24       1.0  0.68309  0.52840  0.34754  1.0000
  C   C265      1.0  0.80894  0.32345  0.34492  1.0000
  C   C266      1.0  0.81314  0.34187  0.34189  1.0000
  C   C267      1.0  0.83152  0.35665  0.34467  1.0000
  C   C268      1.0  0.84584  0.35239  0.34615  1.0000
  C   C269      1.0  0.84220  0.33402  0.34532  1.0000
  C   C270      1.0  0.82362  0.31984  0.34678  1.0000
  H   H277      1.0  0.85920  0.36285  0.34707  1.0000
  H   H278      1.0  0.82063  0.30651  0.34822  1.0000
  H   H279      1.0  0.80247  0.34438  0.33821  1.0000
  N   N25       1.0  0.79134  0.31024  0.34033  1.0000
  N   N26       1.0  0.83601  0.37442  0.34443  1.0000
  N   N27       1.0  0.85611  0.33042  0.34750  1.0000
  C   C271      1.0  0.49090  0.80624  0.34508  1.0000
  C   C272      1.0  0.47668  0.81044  0.34199  1.0000
  C   C273      1.0  0.48027  0.82882  0.34471  1.0000
  C   C274      1.0  0.49886  0.84314  0.34622  1.0000
  C   C275      1.0  0.51359  0.83950  0.34540  1.0000
  C   C276      1.0  0.50919  0.82092  0.34685  1.0000
  H   H280      1.0  0.50175  0.85650  0.34713  1.0000
  H   H281      1.0  0.51953  0.81793  0.34831  1.0000
  H   H282      1.0  0.46349  0.79976  0.33839  1.0000
  N   N28       1.0  0.48651  0.78864  0.34045  1.0000
  N   N29       1.0  0.46700  0.83331  0.34452  1.0000
  N   N30       1.0  0.53111  0.85342  0.34756  1.0000
  C   C277      1.0  0.32615  0.52263  0.34506  1.0000
  C   C278      1.0  0.34457  0.53685  0.34210  1.0000
  C   C279      1.0  0.35935  0.53325  0.34477  1.0000
  C   C280      1.0  0.35508  0.51466  0.34618  1.0000
  C   C281      1.0  0.33671  0.49993  0.34531  1.0000
  C   C282      1.0  0.32253  0.50434  0.34682  1.0000
  H   H283      1.0  0.36554  0.51176  0.34706  1.0000
  H   H284      1.0  0.30920  0.49400  0.34826  1.0000
  H   H285      1.0  0.34708  0.55004  0.33856  1.0000
  N   N31       1.0  0.31294  0.52702  0.34054  1.0000
  N   N32       1.0  0.37712  0.54652  0.34461  1.0000
  N   N33       1.0  0.33311  0.48242  0.34742  1.0000
  C   C283      1.0  0.20728  0.68737  0.34511  1.0000
  C   C284      1.0  0.20308  0.66895  0.34208  1.0000
  C   C285      1.0  0.18470  0.65416  0.34476  1.0000
  C   C286      1.0  0.17038  0.65843  0.34624  1.0000
  C   C287      1.0  0.17401  0.67679  0.34538  1.0000
  C   C288      1.0  0.19260  0.69097  0.34682  1.0000
  H   H286      1.0  0.15702  0.64796  0.34713  1.0000
  H   H287      1.0  0.19558  0.70430  0.34824  1.0000
  H   H288      1.0  0.21376  0.66644  0.33857  1.0000
  N   N34       1.0  0.22487  0.70058  0.34050  1.0000
  N   N35       1.0  0.18021  0.63639  0.34464  1.0000
  N   N36       1.0  0.16009  0.68038  0.34750  1.0000
  C   C289      1.0  0.10414  0.36001  0.34307  1.0000
  C   C290      1.0  0.08524  0.34686  0.34527  1.0000
  C   C291      1.0  0.07863  0.32766  0.34310  1.0000
  C   C292      1.0  0.09198  0.32198  0.34081  1.0000
  C   C293      1.0  0.11120  0.33463  0.34118  1.0000
  C   C294      1.0  0.11677  0.35356  0.34083  1.0000
  H   H289      1.0  0.08760  0.30823  0.33912  1.0000
  H   H290      1.0  0.13043  0.36295  0.33862  1.0000
  H   H291      1.0  0.07618  0.35159  0.34773  1.0000
  N   N37       1.0  0.10907  0.37787  0.34647  1.0000
  N   N38       1.0  0.06046  0.31481  0.34282  1.0000
  N   N39       1.0  0.12355  0.32871  0.33640  1.0000
  C   C295      1.0  0.65350  0.74682  0.34313  1.0000
  C   C296      1.0  0.66664  0.74107  0.34538  1.0000
  C   C297      1.0  0.68584  0.75366  0.34319  1.0000
  C   C298      1.0  0.69152  0.77270  0.34091  1.0000
  C   C299      1.0  0.67887  0.77926  0.34129  1.0000
  C   C300      1.0  0.65994  0.76590  0.34095  1.0000
  H   H292      1.0  0.70527  0.78207  0.33923  1.0000
  H   H293      1.0  0.65055  0.77016  0.33880  1.0000
  H   H294      1.0  0.66192  0.72729  0.34785  1.0000
  N   N40       1.0  0.63564  0.73389  0.34659  1.0000
  N   N41       1.0  0.69870  0.74835  0.34292  1.0000
  N   N42       1.0  0.68479  0.79753  0.33653  1.0000
  C   C301      1.0  0.26669  0.90937  0.34314  1.0000
  C   C302      1.0  0.27244  0.92827  0.34525  1.0000
  C   C303      1.0  0.25986  0.93489  0.34311  1.0000
  C   C304      1.0  0.24082  0.92153  0.34086  1.0000
  C   C305      1.0  0.23426  0.90232  0.34133  1.0000
  C   C306      1.0  0.24761  0.89674  0.34100  1.0000
  H   H295      1.0  0.23145  0.92591  0.33913  1.0000
  H   H296      1.0  0.24334  0.88308  0.33886  1.0000
  H   H297      1.0  0.28623  0.93733  0.34760  1.0000
  N   N43       1.0  0.27962  0.90444  0.34655  1.0000
  N   N44       1.0  0.26516  0.95305  0.34271  1.0000
  N   N45       1.0  0.21598  0.88996  0.33651  1.0000
  C   C307      1.0  0.91209  0.65079  0.34312  1.0000
  C   C308      1.0  0.93098  0.66393  0.34533  1.0000
  C   C309      1.0  0.93760  0.68313  0.34316  1.0000
  C   C310      1.0  0.92425  0.68883  0.34089  1.0000
  C   C311      1.0  0.90504  0.67617  0.34130  1.0000
  C   C312      1.0  0.89945  0.65724  0.34097  1.0000
  H   H298      1.0  0.92864  0.70257  0.33917  1.0000
  H   H299      1.0  0.88579  0.64785  0.33877  1.0000
  H   H300      1.0  0.94004  0.65921  0.34774  1.0000
  N   N46       1.0  0.90715  0.63293  0.34652  1.0000
  N   N47       1.0  0.95576  0.69599  0.34284  1.0000
  N   N48       1.0  0.89268  0.68209  0.33645  1.0000
  C   C313      1.0  0.36272  0.26398  0.34306  1.0000
  C   C314      1.0  0.34958  0.26973  0.34525  1.0000
  C   C315      1.0  0.33037  0.25715  0.34308  1.0000
  C   C316      1.0  0.32469  0.23811  0.34079  1.0000
  C   C317      1.0  0.33734  0.23155  0.34117  1.0000
  C   C318      1.0  0.35627  0.24490  0.34082  1.0000
  H   H301      1.0  0.31094  0.22874  0.33910  1.0000
  H   H302      1.0  0.36566  0.24063  0.33862  1.0000
  H   H303      1.0  0.35430  0.28352  0.34771  1.0000
  N   N49       1.0  0.38058  0.27691  0.34646  1.0000
  N   N50       1.0  0.31751  0.26245  0.34280  1.0000
  N   N51       1.0  0.33142  0.21327  0.33639  1.0000
  C   C319      1.0  0.74953  0.10143  0.34313  1.0000
  C   C320      1.0  0.74378  0.08254  0.34537  1.0000
  C   C321      1.0  0.75637  0.07593  0.34319  1.0000
  C   C322      1.0  0.77541  0.08928  0.34091  1.0000
  C   C323      1.0  0.78196  0.10850  0.34129  1.0000
  C   C324      1.0  0.76861  0.11407  0.34096  1.0000
  H   H304      1.0  0.78478  0.08490  0.33923  1.0000
  H   H305      1.0  0.77287  0.12773  0.33880  1.0000
  H   H306      1.0  0.72999  0.07347  0.34784  1.0000
  N   N52       1.0  0.73660  0.10636  0.34660  1.0000
  N   N53       1.0  0.75106  0.05776  0.34292  1.0000
  N   N54       1.0  0.80024  0.12085  0.33654  1.0000
  C   C325      1.0  0.36314  0.10175  0.34297  1.0000
  C   C326      1.0  0.34975  0.08294  0.34244  1.0000
  C   C327      1.0  0.33064  0.07671  0.34362  1.0000
  C   C328      1.0  0.32528  0.09032  0.34312  1.0000
  C   C329      1.0  0.33819  0.10948  0.34254  1.0000
  C   C330      1.0  0.35704  0.11466  0.34167  1.0000
  H   H307      1.0  0.31158  0.08615  0.34242  1.0000
  H   H308      1.0  0.36668  0.12820  0.33734  1.0000
  H   H309      1.0  0.35417  0.07362  0.33950  1.0000
  N   N55       1.0  0.38093  0.10643  0.33862  1.0000
  N   N56       1.0  0.31767  0.05863  0.33985  1.0000
  N   N57       1.0  0.33234  0.12193  0.34047  1.0000
  C   C331      1.0  0.74942  0.65037  0.34397  1.0000
  C   C332      1.0  0.74400  0.66376  0.34268  1.0000
  C   C333      1.0  0.75689  0.68287  0.34380  1.0000
  C   C334      1.0  0.77585  0.68823  0.34371  1.0000
  C   C335      1.0  0.78210  0.67532  0.34357  1.0000
  C   C336      1.0  0.76844  0.65648  0.34337  1.0000
  H   H310      1.0  0.78539  0.70193  0.34293  1.0000
  H   H311      1.0  0.77233  0.64682  0.34045  1.0000
  H   H312      1.0  0.73028  0.65934  0.33932  1.0000
  N   N58       1.0  0.73632  0.63258  0.33959  1.0000
  N   N59       1.0  0.75177  0.69584  0.33986  1.0000
  N   N60       1.0  0.80042  0.68119  0.34217  1.0000
  C   C337      1.0  0.91175  0.26408  0.34350  1.0000
  C   C338      1.0  0.93057  0.26950  0.34258  1.0000
  C   C339      1.0  0.93680  0.25662  0.34379  1.0000
  C   C340      1.0  0.92319  0.23766  0.34351  1.0000
  C   C341      1.0  0.90403  0.23140  0.34316  1.0000
  C   C342      1.0  0.89885  0.24506  0.34263  1.0000
  H   H313      1.0  0.92736  0.22812  0.34280  1.0000
  H   H314      1.0  0.88530  0.24118  0.33907  1.0000
  H   H315      1.0  0.93988  0.28324  0.33944  1.0000
  N   N61       1.0  0.90707  0.27718  0.33915  1.0000
  N   N62       1.0  0.95488  0.26174  0.33996  1.0000
  N   N63       1.0  0.89158  0.21309  0.34147  1.0000
  C   C343      1.0  0.65309  0.90905  0.34361  1.0000
  C   C344      1.0  0.66648  0.92787  0.34260  1.0000
  C   C345      1.0  0.68559  0.93409  0.34372  1.0000
  C   C346      1.0  0.69095  0.92048  0.34349  1.0000
  C   C347      1.0  0.67804  0.90133  0.34316  1.0000
  C   C348      1.0  0.65919  0.89614  0.34266  1.0000
  H   H316      1.0  0.70465  0.92465  0.34274  1.0000
  H   H317      1.0  0.64954  0.88260  0.33914  1.0000
  H   H318      1.0  0.66207  0.93718  0.33939  1.0000
  N   N64       1.0  0.63530  0.90437  0.33918  1.0000
  N   N65       1.0  0.69856  0.95218  0.33985  1.0000
  N   N66       1.0  0.68390  0.88887  0.34148  1.0000
  C   C349      1.0  0.26680  0.36044  0.34299  1.0000
  C   C350      1.0  0.27222  0.34705  0.34246  1.0000
  C   C351      1.0  0.25933  0.32794  0.34366  1.0000
  C   C352      1.0  0.24037  0.32258  0.34317  1.0000
  C   C353      1.0  0.23412  0.33549  0.34258  1.0000
  C   C354      1.0  0.24778  0.35433  0.34169  1.0000
  H   H319      1.0  0.23083  0.30888  0.34248  1.0000
  H   H320      1.0  0.24389  0.36398  0.33738  1.0000
  H   H321      1.0  0.28595  0.35147  0.33953  1.0000
  N   N67       1.0  0.27990  0.37823  0.33863  1.0000
  N   N68       1.0  0.26445  0.31497  0.33991  1.0000
  N   N69       1.0  0.21581  0.32963  0.34052  1.0000
  C   C355      1.0  0.10446  0.74672  0.34378  1.0000
  C   C356      1.0  0.08564  0.74129  0.34265  1.0000
  C   C357      1.0  0.07941  0.75418  0.34376  1.0000
  C   C358      1.0  0.09302  0.77314  0.34360  1.0000
  C   C359      1.0  0.11218  0.77939  0.34335  1.0000
  C   C360      1.0  0.11737  0.76573  0.34300  1.0000
  H   H322      1.0  0.08885  0.78268  0.34286  1.0000
  H   H323      1.0  0.13091  0.76962  0.33977  1.0000
  H   H324      1.0  0.07633  0.72756  0.33939  1.0000
  N   N70       1.0  0.10914  0.73361  0.33940  1.0000
  N   N71       1.0  0.06133  0.74906  0.33992  1.0000
  N   N72       1.0  0.12463  0.79771  0.34181  1.0000
  C   C361      1.0  0.14524  0.44925  0.35476  1.0000
  C   C362      1.0  0.13995  0.43838  0.43491  1.0000
  C   C363      1.0  0.13162  0.41886  0.42863  1.0000
  C   C364      1.0  0.14386  0.44739  0.52615  1.0000
  H   H325      1.0  0.14884  0.46209  0.52397  1.0000
  H   H326      1.0  0.15416  0.44543  0.56124  1.0000
  H   H327      1.0  0.13134  0.44147  0.56636  1.0000
  C   C365      1.0  0.12833  0.40785  0.51355  1.0000
  H   H328      1.0  0.12217  0.39313  0.50350  1.0000
  H   H329      1.0  0.11903  0.40968  0.55784  1.0000
  H   H330      1.0  0.14131  0.41239  0.54856  1.0000
  C   C366      1.0  0.15959  0.46745  0.36109  1.0000
  H   H331      1.0  0.17106  0.46902  0.38884  1.0000
  C   C367      1.0  0.56425  0.69868  0.35475  1.0000
  C   C368      1.0  0.57512  0.70425  0.43490  1.0000
  C   C369      1.0  0.59464  0.71545  0.42862  1.0000
  C   C370      1.0  0.56611  0.69914  0.52613  1.0000
  H   H332      1.0  0.55141  0.68941  0.52396  1.0000
  H   H333      1.0  0.56806  0.71138  0.56126  1.0000
  H   H334      1.0  0.57204  0.69255  0.56631  1.0000
  C   C371      1.0  0.60564  0.72317  0.51352  1.0000
  H   H335      1.0  0.62036  0.73175  0.50346  1.0000
  H   H336      1.0  0.60383  0.71204  0.55781  1.0000
  H   H337      1.0  0.60110  0.73160  0.54855  1.0000
  C   C372      1.0  0.54605  0.69483  0.36112  1.0000
  H   H338      1.0  0.54448  0.70472  0.38890  1.0000
  C   C373      1.0  0.31480  0.86825  0.35483  1.0000
  C   C374      1.0  0.30926  0.87357  0.43497  1.0000
  C   C375      1.0  0.29808  0.88191  0.42868  1.0000
  C   C376      1.0  0.31437  0.86966  0.52618  1.0000
  H   H339      1.0  0.32408  0.86466  0.52396  1.0000
  H   H340      1.0  0.30212  0.85938  0.56133  1.0000
  H   H341      1.0  0.32098  0.88218  0.56635  1.0000
  C   C377      1.0  0.29039  0.88523  0.51360  1.0000
  H   H342      1.0  0.28184  0.89139  0.50355  1.0000
  H   H343      1.0  0.30154  0.89454  0.55781  1.0000
  H   H344      1.0  0.28195  0.87227  0.54871  1.0000
  C   C378      1.0  0.31866  0.85390  0.36106  1.0000
  H   H345      1.0  0.30876  0.84243  0.38878  1.0000
  C   C379      1.0  0.87099  0.56157  0.35471  1.0000
  C   C380      1.0  0.87626  0.57242  0.43490  1.0000
  C   C381      1.0  0.88458  0.59194  0.42862  1.0000
  C   C382      1.0  0.87233  0.56340  0.52612  1.0000
  H   H346      1.0  0.86735  0.54870  0.52392  1.0000
  H   H347      1.0  0.86203  0.56536  0.56117  1.0000
  H   H348      1.0  0.88484  0.56932  0.56638  1.0000
  C   C383      1.0  0.88787  0.60294  0.51353  1.0000
  H   H349      1.0  0.89402  0.61766  0.50350  1.0000
  H   H350      1.0  0.89717  0.60111  0.55783  1.0000
  H   H351      1.0  0.87489  0.59840  0.54853  1.0000
  C   C384      1.0  0.85663  0.54337  0.36100  1.0000
  H   H352      1.0  0.84515  0.54181  0.38861  1.0000
  C   C385      1.0  0.45196  0.31212  0.35476  1.0000
  C   C386      1.0  0.44109  0.30654  0.43491  1.0000
  C   C387      1.0  0.42157  0.29535  0.42863  1.0000
  C   C388      1.0  0.45010  0.31164  0.52615  1.0000
  H   H353      1.0  0.46480  0.32136  0.52398  1.0000
  H   H354      1.0  0.44814  0.29939  0.56124  1.0000
  H   H355      1.0  0.44417  0.31823  0.56636  1.0000
  C   C389      1.0  0.41056  0.28763  0.51355  1.0000
  H   H356      1.0  0.39584  0.27907  0.50350  1.0000
  H   H357      1.0  0.41239  0.29877  0.55784  1.0000
  H   H358      1.0  0.41510  0.27919  0.54855  1.0000
  C   C390      1.0  0.47016  0.31597  0.36110  1.0000
  H   H359      1.0  0.47173  0.30607  0.38885  1.0000
  C   C391      1.0  0.70139  0.14254  0.35476  1.0000
  C   C392      1.0  0.70696  0.13724  0.43491  1.0000
  C   C393      1.0  0.71815  0.12892  0.42862  1.0000
  C   C394      1.0  0.70185  0.14114  0.52614  1.0000
  H   H360      1.0  0.69211  0.14610  0.52396  1.0000
  H   H361      1.0  0.71409  0.15143  0.56127  1.0000
  H   H362      1.0  0.69525  0.12861  0.56632  1.0000
  C   C395      1.0  0.72588  0.12563  0.51353  1.0000
  H   H363      1.0  0.73445  0.11949  0.50346  1.0000
  H   H364      1.0  0.71474  0.11632  0.55781  1.0000
  H   H365      1.0  0.73430  0.13861  0.54855  1.0000
  C   C396      1.0  0.69753  0.15688  0.36112  1.0000
  H   H366      1.0  0.70742  0.16835  0.38891  1.0000
  C   C397      1.0  0.41342  0.12457  0.34435  1.0000
  C   C398      1.0  0.42438  0.12744  0.42281  1.0000
  C   C399      1.0  0.44398  0.13728  0.41544  1.0000
  C   C400      1.0  0.45622  0.14274  0.49703  1.0000
  H   H367      1.0  0.44921  0.13826  0.56140  1.0000
  H   H368      1.0  0.46457  0.15767  0.50078  1.0000
  H   H369      1.0  0.46527  0.13697  0.49187  1.0000
  C   C401      1.0  0.41543  0.12074  0.51310  1.0000
  H   H370      1.0  0.40054  0.11214  0.51049  1.0000
  H   H371      1.0  0.41859  0.13239  0.55675  1.0000
  H   H372      1.0  0.42043  0.11231  0.54418  1.0000
  C   C402      1.0  0.39570  0.12174  0.35541  1.0000
  H   H373      1.0  0.39483  0.13242  0.37756  1.0000
  C   C403      1.0  0.72193  0.60008  0.34488  1.0000
  C   C404      1.0  0.71381  0.58912  0.42328  1.0000
  C   C405      1.0  0.70404  0.56952  0.41583  1.0000
  C   C406      1.0  0.69723  0.55726  0.49734  1.0000
  H   H374      1.0  0.69973  0.56426  0.56173  1.0000
  H   H375      1.0  0.70381  0.54892  0.50117  1.0000
  H   H376      1.0  0.68241  0.54821  0.49202  1.0000
  C   C407      1.0  0.71607  0.59806  0.51359  1.0000
  H   H377      1.0  0.72240  0.61296  0.51103  1.0000
  H   H378      1.0  0.72454  0.59487  0.55726  1.0000
  H   H379      1.0  0.70264  0.59309  0.54462  1.0000
  C   C408      1.0  0.73684  0.61779  0.35593  1.0000
  H   H380      1.0  0.74840  0.61862  0.37767  1.0000
  C   C409      1.0  0.88894  0.29155  0.34467  1.0000
  C   C410      1.0  0.88610  0.29968  0.42307  1.0000
  C   C411      1.0  0.87627  0.30944  0.41563  1.0000
  C   C412      1.0  0.87083  0.31625  0.49715  1.0000
  H   H381      1.0  0.87533  0.31374  0.56154  1.0000
  H   H382      1.0  0.85590  0.30967  0.50097  1.0000
  H   H383      1.0  0.87660  0.33107  0.49187  1.0000
  C   C413      1.0  0.89279  0.29741  0.51338  1.0000
  H   H384      1.0  0.90137  0.29110  0.51080  1.0000
  H   H385      1.0  0.88113  0.28894  0.55705  1.0000
  H   H386      1.0  0.90124  0.31085  0.54441  1.0000
  C   C414      1.0  0.89175  0.27665  0.35570  1.0000
  H   H387      1.0  0.88105  0.26509  0.37761  1.0000
  C   C415      1.0  0.60281  0.88625  0.34468  1.0000
  C   C416      1.0  0.59184  0.88340  0.42309  1.0000
  C   C417      1.0  0.57224  0.87357  0.41565  1.0000
  C   C418      1.0  0.55999  0.86811  0.49719  1.0000
  H   H388      1.0  0.56700  0.87259  0.56159  1.0000
  H   H389      1.0  0.55164  0.85318  0.50094  1.0000
  H   H390      1.0  0.55094  0.87388  0.49198  1.0000
  C   C419      1.0  0.60078  0.89011  0.51340  1.0000
  H   H391      1.0  0.61567  0.89870  0.51082  1.0000
  H   H392      1.0  0.59761  0.87845  0.55708  1.0000
  H   H393      1.0  0.59578  0.89854  0.54443  1.0000
  C   C420      1.0  0.62052  0.88907  0.35583  1.0000
  H   H394      1.0  0.62137  0.87837  0.37792  1.0000
  C   C421      1.0  0.29425  0.41072  0.34435  1.0000
  C   C422      1.0  0.30234  0.42168  0.42281  1.0000
  C   C423      1.0  0.31210  0.44128  0.41544  1.0000
  C   C424      1.0  0.31888  0.45352  0.49702  1.0000
  H   H395      1.0  0.31634  0.44651  0.56140  1.0000
  H   H396      1.0  0.31230  0.46187  0.50077  1.0000
  H   H397      1.0  0.33370  0.46257  0.49187  1.0000
  C   C425      1.0  0.30009  0.41273  0.51310  1.0000
  H   H398      1.0  0.29380  0.39784  0.51049  1.0000
  H   H399      1.0  0.29159  0.41589  0.55675  1.0000
  H   H400      1.0  0.31352  0.41773  0.54418  1.0000
  C   C426      1.0  0.27936  0.39300  0.35541  1.0000
  H   H401      1.0  0.26780  0.39213  0.37754  1.0000
  C   C427      1.0  0.12726  0.71923  0.34479  1.0000
  C   C428      1.0  0.13010  0.71111  0.42321  1.0000
  C   C429      1.0  0.13993  0.70134  0.41577  1.0000
  C   C430      1.0  0.14537  0.69453  0.49729  1.0000
  H   H402      1.0  0.14087  0.69703  0.56167  1.0000
  H   H403      1.0  0.16029  0.70110  0.50113  1.0000
  H   H404      1.0  0.13960  0.67971  0.49198  1.0000
  C   C431      1.0  0.12341  0.71338  0.51351  1.0000
  H   H405      1.0  0.11485  0.71970  0.51094  1.0000
  H   H406      1.0  0.13508  0.72184  0.55719  1.0000
  H   H407      1.0  0.11496  0.69994  0.54454  1.0000
  C   C432      1.0  0.12446  0.73414  0.35583  1.0000
  H   H408      1.0  0.13517  0.74570  0.37767  1.0000
  C   C433      1.0  0.28367  0.52394  0.35316  1.0000
  C   C434      1.0  0.27820  0.53043  0.42920  1.0000
  C   C435      1.0  0.26085  0.52967  0.42765  1.0000
  C   C436      1.0  0.25355  0.53502  0.50766  1.0000
  H   H409      1.0  0.26296  0.54089  0.56409  1.0000
  H   H410      1.0  0.24127  0.52301  0.53351  1.0000
  H   H411      1.0  0.24993  0.54526  0.48699  1.0000
  C   C437      1.0  0.29015  0.53735  0.51148  1.0000
  H   H412      1.0  0.30340  0.53807  0.50475  1.0000
  H   H413      1.0  0.28312  0.52846  0.56884  1.0000
  H   H414      1.0  0.29322  0.55130  0.52655  1.0000
  C   C438      1.0  0.29610  0.51789  0.36654  1.0000
  H   H415      1.0  0.29133  0.50583  0.39703  1.0000
  C   C439      1.0  0.48961  0.76247  0.35313  1.0000
  C   C440      1.0  0.48311  0.75049  0.42916  1.0000
  C   C441      1.0  0.48387  0.73391  0.42761  1.0000
  C   C442      1.0  0.47852  0.72126  0.50764  1.0000
  H   H416      1.0  0.47267  0.72480  0.56411  1.0000
  H   H417      1.0  0.49053  0.72098  0.53342  1.0000
  H   H418      1.0  0.46827  0.70739  0.48700  1.0000
  C   C443      1.0  0.47617  0.75552  0.51144  1.0000
  H   H419      1.0  0.47543  0.76802  0.50472  1.0000
  H   H420      1.0  0.48507  0.75739  0.56881  1.0000
  H   H421      1.0  0.46222  0.74462  0.52649  1.0000
  C   C444      1.0  0.49563  0.78094  0.36663  1.0000
  H   H422      1.0  0.50767  0.78822  0.39734  1.0000
  C   C445      1.0  0.25104  0.72985  0.35317  1.0000
  C   C446      1.0  0.26302  0.73532  0.42919  1.0000
  C   C447      1.0  0.27961  0.75266  0.42763  1.0000
  C   C448      1.0  0.29227  0.75995  0.50762  1.0000
  H   H423      1.0  0.28873  0.75055  0.56407  1.0000
  H   H424      1.0  0.29256  0.77224  0.53344  1.0000
  H   H425      1.0  0.30613  0.76355  0.48692  1.0000
  C   C449      1.0  0.25800  0.72336  0.51147  1.0000
  H   H426      1.0  0.24548  0.71012  0.50477  1.0000
  H   H427      1.0  0.25614  0.73039  0.56885  1.0000
  H   H428      1.0  0.26888  0.72030  0.52648  1.0000
  C   C450      1.0  0.23257  0.71740  0.36668  1.0000
  H   H429      1.0  0.22529  0.72215  0.39740  1.0000
  C   C451      1.0  0.73256  0.48690  0.35322  1.0000
  C   C452      1.0  0.73802  0.48040  0.42922  1.0000
  C   C453      1.0  0.75536  0.48115  0.42763  1.0000
  C   C454      1.0  0.76266  0.47578  0.50760  1.0000
  H   H430      1.0  0.75326  0.46991  0.56405  1.0000
  H   H431      1.0  0.77495  0.48778  0.53345  1.0000
  H   H432      1.0  0.76627  0.46553  0.48689  1.0000
  C   C455      1.0  0.72607  0.47347  0.51151  1.0000
  H   H433      1.0  0.71283  0.47276  0.50482  1.0000
  H   H434      1.0  0.73311  0.48236  0.56888  1.0000
  H   H435      1.0  0.72300  0.45952  0.52654  1.0000
  C   C456      1.0  0.72012  0.49295  0.36663  1.0000
  H   H436      1.0  0.72489  0.50500  0.39715  1.0000
  C   C457      1.0  0.52664  0.24837  0.35316  1.0000
  C   C458      1.0  0.53314  0.26034  0.42920  1.0000
  C   C459      1.0  0.53237  0.27692  0.42765  1.0000
  C   C460      1.0  0.53773  0.28958  0.50766  1.0000
  H   H437      1.0  0.54360  0.28604  0.56409  1.0000
  H   H438      1.0  0.52572  0.28984  0.53351  1.0000
  H   H439      1.0  0.54797  0.30344  0.48700  1.0000
  C   C461      1.0  0.54005  0.25530  0.51148  1.0000
  H   H440      1.0  0.54077  0.24278  0.50476  1.0000
  H   H441      1.0  0.53116  0.25344  0.56884  1.0000
  H   H442      1.0  0.55400  0.26618  0.52656  1.0000
  C   C462      1.0  0.52060  0.22989  0.36653  1.0000
  H   H443      1.0  0.50853  0.22260  0.39703  1.0000
  C   C463      1.0  0.76517  0.28097  0.35306  1.0000
  C   C464      1.0  0.75320  0.27550  0.42911  1.0000
  C   C465      1.0  0.73662  0.25815  0.42759  1.0000
  C   C466      1.0  0.72396  0.25085  0.50762  1.0000
  H   H444      1.0  0.72751  0.26025  0.56408  1.0000
  H   H445      1.0  0.72369  0.23856  0.53341  1.0000
  H   H446      1.0  0.71010  0.24723  0.48700  1.0000
  C   C467      1.0  0.75822  0.28746  0.51138  1.0000
  H   H447      1.0  0.77073  0.30071  0.50463  1.0000
  H   H448      1.0  0.76009  0.28044  0.56874  1.0000
  H   H449      1.0  0.74733  0.29051  0.52643  1.0000
  C   C468      1.0  0.78364  0.29342  0.36654  1.0000
  H   H450      1.0  0.79092  0.28867  0.39726  1.0000
  C   C469      1.0  0.18360  0.60993  0.35165  1.0000
  C   C470      1.0  0.18520  0.60149  0.43197  1.0000
  C   C471      1.0  0.18531  0.58457  0.42635  1.0000
  C   C472      1.0  0.18760  0.61065  0.52206  1.0000
  H   H451      1.0  0.18616  0.62282  0.52043  1.0000
  H   H452      1.0  0.20118  0.61479  0.54923  1.0000
  H   H453      1.0  0.17719  0.60122  0.56910  1.0000
  C   C473      1.0  0.18894  0.57683  0.51020  1.0000
  H   H454      1.0  0.18882  0.56395  0.50074  1.0000
  H   H455      1.0  0.17847  0.57410  0.56073  1.0000
  H   H456      1.0  0.20239  0.58660  0.53756  1.0000
  C   C474      1.0  0.19023  0.62883  0.35250  1.0000
  H   H457      1.0  0.20367  0.63662  0.36165  1.0000
  C   C475      1.0  0.40360  0.57637  0.35169  1.0000
  C   C476      1.0  0.41201  0.58643  0.43202  1.0000
  C   C477      1.0  0.42893  0.60346  0.42637  1.0000
  C   C478      1.0  0.40286  0.57967  0.52213  1.0000
  H   H458      1.0  0.39071  0.56605  0.52054  1.0000
  H   H459      1.0  0.39870  0.58910  0.54926  1.0000
  H   H460      1.0  0.41230  0.57870  0.56917  1.0000
  C   C479      1.0  0.43667  0.61484  0.51022  1.0000
  H   H461      1.0  0.44953  0.62760  0.50074  1.0000
  H   H462      1.0  0.43940  0.60710  0.56075  1.0000
  H   H463      1.0  0.42688  0.61850  0.53756  1.0000
  C   C480      1.0  0.38469  0.56411  0.35265  1.0000
  H   H464      1.0  0.37690  0.56975  0.36205  1.0000
  C   C481      1.0  0.43714  0.82992  0.35174  1.0000
  C   C482      1.0  0.42708  0.82830  0.43202  1.0000
  C   C483      1.0  0.41004  0.82818  0.42635  1.0000
  C   C484      1.0  0.43383  0.82592  0.52216  1.0000
  H   H465      1.0  0.44745  0.82738  0.52061  1.0000
  H   H466      1.0  0.42441  0.81234  0.54931  1.0000
  H   H467      1.0  0.43480  0.83632  0.56917  1.0000
  C   C485      1.0  0.39866  0.82453  0.51017  1.0000
  H   H468      1.0  0.38589  0.82464  0.50067  1.0000
  H   H469      1.0  0.40639  0.83501  0.56072  1.0000
  H   H470      1.0  0.39500  0.81109  0.53750  1.0000
  C   C486      1.0  0.44942  0.82330  0.35277  1.0000
  H   H471      1.0  0.44379  0.80987  0.36240  1.0000
  C   C487      1.0  0.83261  0.40088  0.35184  1.0000
  C   C488      1.0  0.83103  0.40934  0.43214  1.0000
  C   C489      1.0  0.83091  0.42626  0.42646  1.0000
  C   C490      1.0  0.82869  0.40023  0.52231  1.0000
  H   H472      1.0  0.83016  0.38808  0.52076  1.0000
  H   H473      1.0  0.81511  0.39607  0.54959  1.0000
  H   H474      1.0  0.83911  0.40969  0.56922  1.0000
  C   C491      1.0  0.82727  0.43400  0.51028  1.0000
  H   H475      1.0  0.82735  0.44686  0.50076  1.0000
  H   H476      1.0  0.83776  0.43676  0.56078  1.0000
  H   H477      1.0  0.81383  0.42421  0.53771  1.0000
  C   C492      1.0  0.82600  0.38199  0.35295  1.0000
  H   H478      1.0  0.81259  0.37419  0.36294  1.0000
  C   C493      1.0  0.61264  0.43443  0.35163  1.0000
  C   C494      1.0  0.60421  0.42439  0.43196  1.0000
  C   C495      1.0  0.58728  0.40737  0.42635  1.0000
  C   C496      1.0  0.61337  0.43115  0.52204  1.0000
  H   H479      1.0  0.62554  0.44476  0.52039  1.0000
  H   H480      1.0  0.61751  0.42172  0.54918  1.0000
  H   H481      1.0  0.60394  0.43214  0.56909  1.0000
  C   C497      1.0  0.57954  0.39599  0.51020  1.0000
  H   H482      1.0  0.56667  0.38324  0.50074  1.0000
  H   H483      1.0  0.57682  0.40375  0.56073  1.0000
  H   H484      1.0  0.58932  0.39232  0.53753  1.0000
  C   C498      1.0  0.63154  0.44670  0.35246  1.0000
  H   H485      1.0  0.63933  0.44105  0.36152  1.0000
  C   C499      1.0  0.57908  0.18088  0.35169  1.0000
  C   C500      1.0  0.58913  0.18252  0.43202  1.0000
  C   C501      1.0  0.60616  0.18264  0.42638  1.0000
  C   C502      1.0  0.58237  0.18491  0.52213  1.0000
  H   H486      1.0  0.56875  0.18345  0.52054  1.0000
  H   H487      1.0  0.59179  0.19849  0.54926  1.0000
  H   H488      1.0  0.58140  0.17451  0.56917  1.0000
  C   C503      1.0  0.61754  0.18628  0.51022  1.0000
  H   H489      1.0  0.63030  0.18617  0.50075  1.0000
  H   H490      1.0  0.60980  0.17580  0.56076  1.0000
  H   H491      1.0  0.62121  0.19973  0.53756  1.0000
  C   C504      1.0  0.56681  0.18752  0.35265  1.0000
  H   H492      1.0  0.57245  0.20095  0.36204  1.0000
  C   C505      1.0  0.98790  0.28122  0.34722  1.0000
  C   C506      1.0  0.99842  0.28316  0.42641  1.0000
  C   C507      1.0  0.01812  0.29363  0.42361  1.0000
  C   C508      1.0  0.02972  0.29729  0.50663  1.0000
  H   H493      1.0  0.02228  0.29064  0.56787  1.0000
  H   H494      1.0  0.03730  0.31200  0.52059  1.0000
  H   H495      1.0  0.03952  0.29257  0.49545  1.0000
  C   C509      1.0  0.98883  0.27467  0.51349  1.0000
  H   H496      1.0  0.97397  0.26620  0.50813  1.0000
  H   H497      1.0  0.99172  0.28540  0.56285  1.0000
  H   H498      1.0  0.99361  0.26564  0.53929  1.0000
  C   C510      1.0  0.96958  0.27728  0.35649  1.0000
  H   H499      1.0  0.96821  0.28772  0.37771  1.0000
  C   C511      1.0  0.73228  0.70937  0.34716  1.0000
  C   C512      1.0  0.73033  0.71794  0.42638  1.0000
  C   C513      1.0  0.71985  0.72716  0.42360  1.0000
  C   C514      1.0  0.71616  0.73507  0.50663  1.0000
  H   H500      1.0  0.72277  0.73424  0.56792  1.0000
  H   H501      1.0  0.70144  0.72794  0.52044  1.0000
  H   H502      1.0  0.72089  0.74959  0.49557  1.0000
  C   C515      1.0  0.73882  0.71685  0.51348  1.0000
  H   H503      1.0  0.74731  0.71048  0.50814  1.0000
  H   H504      1.0  0.72808  0.70898  0.56281  1.0000
  H   H505      1.0  0.74782  0.73066  0.53935  1.0000
  C   C516      1.0  0.73624  0.69500  0.35657  1.0000
  H   H506      1.0  0.72581  0.68320  0.37804  1.0000
  C   C517      1.0  0.30413  0.02561  0.34715  1.0000
  C   C518      1.0  0.29557  0.01510  0.42642  1.0000
  C   C519      1.0  0.28635  0.99540  0.42373  1.0000
  C   C520      1.0  0.27843  0.98382  0.50681  1.0000
  H   H507      1.0  0.27923  0.99127  0.56803  1.0000
  H   H508      1.0  0.28556  0.97624  0.52078  1.0000
  H   H509      1.0  0.26391  0.97401  0.49571  1.0000
  C   C521      1.0  0.29667  0.02470  0.51347  1.0000
  H   H510      1.0  0.30305  0.03956  0.50807  1.0000
  H   H511      1.0  0.30452  0.02183  0.56284  1.0000
  H   H512      1.0  0.28286  0.01991  0.53931  1.0000
  C   C522      1.0  0.31850  0.04392  0.35647  1.0000
  H   H513      1.0  0.33032  0.04530  0.37771  1.0000
  C   C523      1.0  0.02831  0.72957  0.34720  1.0000
  C   C524      1.0  0.01780  0.72764  0.42641  1.0000
  C   C525      1.0  0.99810  0.71717  0.42366  1.0000
  C   C526      1.0  0.98650  0.71350  0.50668  1.0000
  H   H514      1.0  0.99394  0.72015  0.56791  1.0000
  H   H515      1.0  0.97892  0.69879  0.52064  1.0000
  H   H516      1.0  0.97670  0.71822  0.49551  1.0000
  C   C527      1.0  0.02739  0.73613  0.51348  1.0000
  H   H517      1.0  0.04225  0.74459  0.50811  1.0000
  H   H518      1.0  0.02450  0.72540  0.56285  1.0000
  H   H519      1.0  0.02261  0.74516  0.53929  1.0000
  C   C528      1.0  0.04663  0.73351  0.35645  1.0000
  H   H520      1.0  0.04800  0.72307  0.37766  1.0000
  C   C529      1.0  0.28393  0.30144  0.34718  1.0000
  C   C530      1.0  0.28587  0.29285  0.42638  1.0000
  C   C531      1.0  0.29633  0.28362  0.42360  1.0000
  C   C532      1.0  0.29999  0.27568  0.50662  1.0000
  H   H521      1.0  0.29335  0.27648  0.56785  1.0000
  H   H522      1.0  0.31470  0.28281  0.52059  1.0000
  H   H523      1.0  0.29528  0.26116  0.49545  1.0000
  C   C533      1.0  0.27737  0.29395  0.51344  1.0000
  H   H524      1.0  0.26891  0.30035  0.50808  1.0000
  H   H525      1.0  0.28810  0.30179  0.56283  1.0000
  H   H526      1.0  0.26834  0.28014  0.53925  1.0000
  C   C534      1.0  0.28000  0.31581  0.35643  1.0000
  H   H527      1.0  0.29044  0.32763  0.37757  1.0000
  C   C535      1.0  0.71209  0.98519  0.34715  1.0000
  C   C536      1.0  0.72066  0.99572  0.42637  1.0000
  C   C537      1.0  0.72988  0.01542  0.42360  1.0000
  C   C538      1.0  0.73779  0.02702  0.50664  1.0000
  H   H528      1.0  0.73696  0.01958  0.56792  1.0000
  H   H529      1.0  0.73066  0.03460  0.52046  1.0000
  H   H530      1.0  0.75231  0.03681  0.49559  1.0000
  C   C539      1.0  0.71957  0.98614  0.51347  1.0000
  H   H531      1.0  0.71320  0.97128  0.50812  1.0000
  H   H532      1.0  0.71170  0.98900  0.56280  1.0000
  H   H533      1.0  0.73338  0.99094  0.53933  1.0000
  C   C540      1.0  0.69772  0.96688  0.35656  1.0000
  H   H534      1.0  0.68592  0.96550  0.37796  1.0000
  C   C541      1.0  0.15312  0.33028  0.34694  1.0000
  C   C542      1.0  0.16023  0.32628  0.42596  1.0000
  C   C543      1.0  0.17775  0.32726  0.42359  1.0000
  C   C544      1.0  0.18657  0.32485  0.50676  1.0000
  H   H535      1.0  0.17823  0.32101  0.56741  1.0000
  H   H536      1.0  0.19917  0.33764  0.52209  1.0000
  H   H537      1.0  0.19001  0.31411  0.49490  1.0000
  C   C545      1.0  0.14960  0.32168  0.51256  1.0000
  H   H538      1.0  0.13604  0.32025  0.50648  1.0000
  H   H539      1.0  0.15723  0.33234  0.56256  1.0000
  H   H540      1.0  0.14731  0.30851  0.53785  1.0000
  C   C546      1.0  0.14082  0.33694  0.35773  1.0000
  H   H541      1.0  0.14643  0.34941  0.38452  1.0000
  C   C547      1.0  0.68321  0.82553  0.34695  1.0000
  C   C548      1.0  0.68722  0.83668  0.42581  1.0000
  C   C549      1.0  0.68625  0.85323  0.42311  1.0000
  C   C550      1.0  0.68860  0.86448  0.50609  1.0000
  H   H542      1.0  0.69236  0.85997  0.56697  1.0000
  H   H543      1.0  0.67582  0.86433  0.52097  1.0000
  H   H544      1.0  0.69938  0.87864  0.49431  1.0000
  C   C551      1.0  0.69178  0.83068  0.51258  1.0000
  H   H545      1.0  0.69321  0.81854  0.50668  1.0000
  H   H546      1.0  0.68109  0.82765  0.56241  1.0000
  H   H547      1.0  0.70493  0.84155  0.53796  1.0000
  C   C552      1.0  0.67656  0.80658  0.35780  1.0000
  H   H548      1.0  0.66408  0.79971  0.38454  1.0000
  C   C553      1.0  0.18799  0.86039  0.34690  1.0000
  C   C554      1.0  0.17682  0.85322  0.42570  1.0000
  C   C555      1.0  0.16027  0.83569  0.42284  1.0000
  C   C556      1.0  0.14903  0.82676  0.50578  1.0000
  H   H549      1.0  0.15354  0.83500  0.56675  1.0000
  H   H550      1.0  0.14917  0.81411  0.52046  1.0000
  H   H551      1.0  0.13487  0.82339  0.49407  1.0000
  C   C557      1.0  0.18281  0.86375  0.51253  1.0000
  H   H552      1.0  0.19493  0.87733  0.50671  1.0000
  H   H553      1.0  0.18585  0.85609  0.56231  1.0000
  H   H554      1.0  0.17192  0.86600  0.53797  1.0000
  C   C558      1.0  0.20693  0.87269  0.35785  1.0000
  H   H555      1.0  0.21380  0.86709  0.38470  1.0000
  C   C559      1.0  0.86311  0.68051  0.34683  1.0000
  C   C560      1.0  0.85590  0.68446  0.42563  1.0000
  C   C561      1.0  0.83836  0.68347  0.42272  1.0000
  C   C562      1.0  0.82939  0.68573  0.50565  1.0000
  H   H556      1.0  0.83759  0.68938  0.56675  1.0000
  H   H557      1.0  0.81673  0.67294  0.52002  1.0000
  H   H558      1.0  0.82605  0.69654  0.49413  1.0000
  C   C563      1.0  0.86642  0.68902  0.51253  1.0000
  H   H559      1.0  0.88002  0.69053  0.50675  1.0000
  H   H560      1.0  0.85877  0.67829  0.56221  1.0000
  H   H561      1.0  0.86861  0.70214  0.53805  1.0000
  C   C564      1.0  0.87542  0.67388  0.35798  1.0000
  H   H562      1.0  0.86983  0.66143  0.38502  1.0000
  C   C565      1.0  0.33299  0.18528  0.34692  1.0000
  C   C566      1.0  0.32898  0.17416  0.42596  1.0000
  C   C567      1.0  0.32996  0.15761  0.42359  1.0000
  C   C568      1.0  0.32755  0.14639  0.50675  1.0000
  H   H563      1.0  0.32371  0.15088  0.56740  1.0000
  H   H564      1.0  0.34034  0.14658  0.52211  1.0000
  H   H565      1.0  0.31681  0.13221  0.49489  1.0000
  C   C569      1.0  0.32438  0.18019  0.51253  1.0000
  H   H566      1.0  0.32295  0.19232  0.50645  1.0000
  H   H567      1.0  0.33504  0.18322  0.56255  1.0000
  H   H568      1.0  0.31122  0.16932  0.53782  1.0000
  C   C570      1.0  0.33965  0.20423  0.35772  1.0000
  H   H569      1.0  0.35212  0.21110  0.38451  1.0000
  C   C571      1.0  0.82824  0.15043  0.34695  1.0000
  C   C572      1.0  0.83938  0.15757  0.42582  1.0000
  C   C573      1.0  0.85594  0.17509  0.42311  1.0000
  C   C574      1.0  0.86718  0.18399  0.50609  1.0000
  H   H570      1.0  0.86267  0.17572  0.56697  1.0000
  H   H571      1.0  0.86703  0.19663  0.52097  1.0000
  H   H572      1.0  0.88135  0.18737  0.49431  1.0000
  C   C575      1.0  0.83338  0.14701  0.51258  1.0000
  H   H573      1.0  0.82124  0.13344  0.50669  1.0000
  H   H574      1.0  0.83035  0.15468  0.56241  1.0000
  H   H575      1.0  0.84426  0.14474  0.53798  1.0000
  C   C576      1.0  0.80928  0.13813  0.35779  1.0000
  H   H576      1.0  0.80242  0.14374  0.38452  1.0000
