data_image0
_chemical_formula_structural       C4HC2NCHC2HNC2HC2HCHCNC2HNCHCNCHC2HN2C2NCHNC3HC2HC2HC2N2HC2HC3N2HC2HN2CHC2NC2HNCHC2NC2HNCHC2HC3N2HC2HC3N2HC2HC3N2HC2HC3N2HC2HC3N2HC2HC3N2HC2NC2HNCHC2NC2HNCHC2NC2HNCHC2NC2HNCHC2NC2HNCHC2NC2HNCHC2HC3N2HC2HC3N2HC2HC3N2HC3NHC2HC3N2HC2HC3N2HC4H2C4H2C6H3C6H3C6H3C6H3C6H3C6H3C6H3C6H3C3HC6H3C6H3C6H3C6H3C6H3C3NC2HNCHC2NHC2HC2HC3N2HC2HC3N2HC2NC2HNCHC2NC2HNCHC2NC2HNCHC2NC2HNCHC2NC2HNCHC2NC2HNCHC2HC3N2HC2HC3N2HC2HC3N2HC2HC3N2C2HC3N2HC2HC3N2HC2NC2HNCHC2NC2HNCHC2NC2HNCHCNCHC2NC2HNCHC2NC2HNCH
_chemical_formula_sum              "C336 H144 N96"
_cell_length_a       62.7677
_cell_length_b       62.7678
_cell_length_c       14.9449
_cell_angle_alpha    90
_cell_angle_beta     90
_cell_angle_gamma    120

_space_group_name_H-M_alt    "P 1"
_space_group_IT_number       1

loop_
  _space_group_symop_operation_xyz
  'x, y, z'

loop_
  _atom_site_type_symbol
  _atom_site_label
  _atom_site_symmetry_multiplicity
  _atom_site_fract_x
  _atom_site_fract_y
  _atom_site_fract_z
  _atom_site_occupancy
  C   C1        1.0  0.00284  0.04734  0.33477  1.0000
  C   C2        1.0  0.04789  0.00135  0.33684  1.0000
  C   C3        1.0  0.06472  0.01131  0.26478  1.0000
  C   C4        1.0  0.08698  0.01085  0.26559  1.0000
  H   H1        1.0  0.06065  0.01865  0.21072  1.0000
  C   C5        1.0  0.04733  0.25158  0.35655  1.0000
  C   C6        1.0  0.06748  0.25926  0.29739  1.0000
  N   N1        1.0  0.08629  0.28303  0.29736  1.0000
  C   C7        1.0  0.08738  0.30054  0.35401  1.0000
  H   H2        1.0  0.06748  0.24754  0.24993  1.0000
  C   C8        1.0  0.02864  0.54397  0.25716  1.0000
  C   C9        1.0  0.05440  0.55573  0.26049  1.0000
  H   H3        1.0  0.06347  0.55083  0.21536  1.0000
  N   N2        1.0  0.01554  0.52607  0.19629  1.0000
  C   C10       1.0  0.02497  0.02402  0.33407  1.0000
  C   C11       1.0  0.02518  0.00154  0.33684  1.0000
  H   H4        1.0  0.04133  0.04030  0.33305  1.0000
  C   C12       1.0  0.02527  0.22829  0.34703  1.0000
  C   C13       1.0  0.02499  0.20558  0.34578  1.0000
  H   H5        1.0  0.04120  0.20555  0.35308  1.0000
  C   C14       1.0  0.09335  0.58391  0.33540  1.0000
  H   H6        1.0  0.09211  0.54974  0.33923  1.0000
  C   C15       1.0  0.00615  0.15020  0.41629  1.0000
  N   N3        1.0  0.00610  0.12847  0.41550  1.0000
  C   C16       1.0  0.00312  0.11521  0.33976  1.0000
  C   C17       1.0  0.00314  0.09263  0.33943  1.0000
  H   H7        1.0  0.00846  0.15903  0.47603  1.0000
  N   N4        1.0  0.00594  0.08216  0.41497  1.0000
  C   C18       1.0  0.00594  0.06046  0.41522  1.0000
  H   H8        1.0  0.00808  0.05376  0.47484  1.0000
  C   C19       1.0  0.09277  0.00067  0.34017  1.0000
  N   N5        1.0  0.07626  0.99128  0.40847  1.0000
  C   C20       1.0  0.05449  0.99114  0.40883  1.0000
  H   H9        1.0  0.04316  0.98385  0.46301  1.0000
  C   C21       1.0  0.06811  0.29364  0.41686  1.0000
  C   C22       1.0  0.04838  0.26928  0.41803  1.0000
  H   H10       1.0  0.03417  0.26474  0.46171  1.0000
  N   N6        1.0  0.08601  0.33408  0.46926  1.0000
  N   N7        1.0  0.06853  0.31102  0.47213  1.0000
  C   C23       1.0  0.06754  0.57356  0.32706  1.0000
  C   C24       1.0  0.05404  0.57965  0.38738  1.0000
  N   N8        1.0  0.02911  0.56784  0.38303  1.0000
  C   C25       1.0  0.01600  0.55029  0.32088  1.0000
  H   H11       1.0  0.06266  0.59217  0.43746  1.0000
  N   N9        1.0  0.10326  0.02001  0.19670  1.0000
  C   C26       1.0  0.10627  0.32550  0.35091  1.0000
  C   C27       1.0  0.10361  0.56844  0.34006  1.0000
  C   C28       1.0  0.10923  0.60958  0.33804  1.0000
  H   H12       1.0  0.10189  0.62090  0.33301  1.0000
  C   C29       1.0  0.11537  0.00073  0.34019  1.0000
  C   C30       1.0  0.10504  0.34241  0.41066  1.0000
  H   H13       1.0  0.11752  0.54197  0.46414  1.0000
  C   C31       1.0  0.99990  0.12452  0.25742  1.0000
  C   C32       1.0  0.99957  0.14685  0.25631  1.0000
  H   H14       1.0  0.99723  0.15350  0.19677  1.0000
  C   C33       1.0  0.99989  0.05770  0.25495  1.0000
  C   C34       1.0  0.00007  0.08029  0.25674  1.0000
  N   N10       1.0  0.99727  0.09067  0.18110  1.0000
  N   N11       1.0  0.99718  0.11151  0.18143  1.0000
  H   H15       1.0  0.99764  0.04884  0.19520  1.0000
  C   C35       1.0  0.87952  0.87674  0.26001  1.0000
  C   C36       1.0  0.85719  0.85408  0.25832  1.0000
  H   H16       1.0  0.85023  0.84557  0.19827  1.0000
  C   C37       1.0  0.95691  0.95645  0.33919  1.0000
  C   C38       1.0  0.94612  0.94371  0.25877  1.0000
  C   C39       1.0  0.92363  0.92121  0.26023  1.0000
  N   N12       1.0  0.91290  0.90860  0.18397  1.0000
  N   N13       1.0  0.89211  0.88763  0.18386  1.0000
  H   H17       1.0  0.95462  0.95078  0.19879  1.0000
  C   C40       1.0  0.13131  0.01091  0.26559  1.0000
  C   C41       1.0  0.15406  0.01143  0.26476  1.0000
  H   H18       1.0  0.16540  0.01872  0.21051  1.0000
  N   N14       1.0  0.12415  0.02003  0.19669  1.0000
  N   N15       1.0  0.12520  0.33418  0.29154  1.0000
  C   C42       1.0  0.14300  0.35829  0.28666  1.0000
  H   H19       1.0  0.15626  0.36334  0.23864  1.0000
  C   C43       1.0  0.75291  0.79653  0.35682  1.0000
  C   C44       1.0  0.74524  0.80899  0.29752  1.0000
  N   N16       1.0  0.72149  0.80406  0.29744  1.0000
  C   C45       1.0  0.70396  0.78766  0.35411  1.0000
  C   C46       1.0  0.67901  0.78160  0.35095  1.0000
  H   H20       1.0  0.75699  0.82073  0.25013  1.0000
  N   N17       1.0  0.67035  0.79185  0.29148  1.0000
  C   C47       1.0  0.64624  0.78554  0.28654  1.0000
  H   H21       1.0  0.64120  0.79375  0.23848  1.0000
  C   C48       1.0  0.20824  0.95728  0.35789  1.0000
  C   C49       1.0  0.19563  0.93705  0.29912  1.0000
  N   N18       1.0  0.20054  0.91822  0.29916  1.0000
  C   C50       1.0  0.21704  0.91718  0.35551  1.0000
  C   C51       1.0  0.22307  0.89828  0.35233  1.0000
  H   H22       1.0  0.18381  0.93700  0.25193  1.0000
  N   N19       1.0  0.21271  0.87932  0.29310  1.0000
  C   C52       1.0  0.21900  0.86150  0.28802  1.0000
  H   H23       1.0  0.21071  0.84822  0.24013  1.0000
  C   C53       1.0  0.29489  0.06739  0.25663  1.0000
  C   C54       1.0  0.27053  0.04765  0.25478  1.0000
  H   H24       1.0  0.26612  0.03342  0.21132  1.0000
  C   C55       1.0  0.37719  0.14173  0.33279  1.0000
  C   C56       1.0  0.36874  0.12236  0.26960  1.0000
  C   C57       1.0  0.34366  0.10432  0.26455  1.0000
  N   N20       1.0  0.33548  0.08530  0.20590  1.0000
  N   N21       1.0  0.31244  0.06784  0.20223  1.0000
  H   H25       1.0  0.38088  0.12121  0.22689  1.0000
  C   C58       1.0  0.77633  0.70969  0.25821  1.0000
  C   C59       1.0  0.78099  0.73407  0.25647  1.0000
  H   H26       1.0  0.77128  0.73853  0.21267  1.0000
  C   C60       1.0  0.76821  0.62730  0.33375  1.0000
  C   C61       1.0  0.75739  0.63582  0.27042  1.0000
  C   C62       1.0  0.76445  0.66091  0.26564  1.0000
  N   N22       1.0  0.75372  0.66916  0.20680  1.0000
  N   N23       1.0  0.75932  0.69222  0.20335  1.0000
  H   H27       1.0  0.74417  0.62374  0.22739  1.0000
  C   C63       1.0  0.93710  0.22825  0.25771  1.0000
  C   C64       1.0  0.95682  0.22359  0.25582  1.0000
  H   H28       1.0  0.97099  0.23331  0.21202  1.0000
  C   C65       1.0  0.86283  0.23633  0.33361  1.0000
  C   C66       1.0  0.88218  0.24719  0.27030  1.0000
  C   C67       1.0  0.90021  0.24014  0.26543  1.0000
  N   N24       1.0  0.91919  0.25090  0.20661  1.0000
  N   N25       1.0  0.93665  0.24529  0.20303  1.0000
  H   H29       1.0  0.88332  0.26043  0.22738  1.0000
  C   C68       1.0  0.26999  0.47444  0.25791  1.0000
  C   C69       1.0  0.24421  0.46273  0.25285  1.0000
  H   H30       1.0  0.23641  0.46840  0.20516  1.0000
  C   C70       1.0  0.35859  0.50526  0.34098  1.0000
  C   C71       1.0  0.34662  0.51180  0.27544  1.0000
  C   C72       1.0  0.32077  0.49911  0.27015  1.0000
  N   N26       1.0  0.30871  0.50459  0.20691  1.0000
  N   N27       1.0  0.28468  0.49295  0.20124  1.0000
  H   H31       1.0  0.35666  0.52514  0.22917  1.0000
  C   C73       1.0  0.53012  0.79645  0.25783  1.0000
  C   C74       1.0  0.54181  0.78237  0.25279  1.0000
  H   H32       1.0  0.53614  0.76890  0.20508  1.0000
  C   C75       1.0  0.49937  0.85429  0.34090  1.0000
  C   C76       1.0  0.49283  0.83579  0.27534  1.0000
  C   C77       1.0  0.50549  0.82259  0.27006  1.0000
  N   N28       1.0  0.49999  0.80505  0.20684  1.0000
  N   N29       1.0  0.51161  0.79264  0.20118  1.0000
  H   H33       1.0  0.47947  0.83248  0.22916  1.0000
  C   C78       1.0  0.20815  0.73455  0.25809  1.0000
  C   C79       1.0  0.22224  0.76033  0.25315  1.0000
  H   H34       1.0  0.23569  0.76813  0.20539  1.0000
  C   C80       1.0  0.15034  0.64594  0.34095  1.0000
  C   C81       1.0  0.16884  0.65791  0.27536  1.0000
  C   C82       1.0  0.18202  0.68377  0.27016  1.0000
  N   N30       1.0  0.19955  0.69583  0.20691  1.0000
  N   N31       1.0  0.21195  0.71987  0.20132  1.0000
  H   H35       1.0  0.17213  0.64787  0.22911  1.0000
  C   C83       1.0  0.44514  0.22844  0.36334  1.0000
  C   C84       1.0  0.43885  0.24044  0.29702  1.0000
  N   N32       1.0  0.45053  0.26541  0.29353  1.0000
  C   C85       1.0  0.46817  0.28014  0.35303  1.0000
  C   C86       1.0  0.48073  0.30601  0.34701  1.0000
  H   H36       1.0  0.42661  0.23067  0.24744  1.0000
  N   N33       1.0  0.47571  0.31789  0.28179  1.0000
  C   C87       1.0  0.48746  0.34277  0.27544  1.0000
  H   H37       1.0  0.48251  0.35036  0.22476  1.0000
  C   C88       1.0  0.78694  0.55932  0.36358  1.0000
  C   C89       1.0  0.80519  0.56559  0.29716  1.0000
  N   N34       1.0  0.81851  0.55395  0.29370  1.0000
  C   C90       1.0  0.81562  0.53632  0.35322  1.0000
  C   C91       1.0  0.82894  0.52377  0.34717  1.0000
  H   H38       1.0  0.80769  0.57789  0.24772  1.0000
  N   N35       1.0  0.84584  0.52880  0.28191  1.0000
  C   C92       1.0  0.85896  0.51705  0.27552  1.0000
  H   H39       1.0  0.87149  0.52200  0.22480  1.0000
  C   C93       1.0  0.77612  0.21762  0.36359  1.0000
  C   C94       1.0  0.76413  0.19934  0.29726  1.0000
  N   N36       1.0  0.73917  0.18606  0.29372  1.0000
  C   C95       1.0  0.72443  0.18897  0.35319  1.0000
  C   C96       1.0  0.69855  0.17566  0.34713  1.0000
  H   H40       1.0  0.77391  0.19687  0.24771  1.0000
  N   N37       1.0  0.68668  0.15876  0.28187  1.0000
  C   C97       1.0  0.66180  0.14565  0.27548  1.0000
  H   H41       1.0  0.65422  0.13312  0.22476  1.0000
  C   C98       1.0  0.16273  0.46340  0.32604  1.0000
  C   C99       1.0  0.17229  0.48257  0.26175  1.0000
  N   N38       1.0  0.16766  0.50146  0.26747  1.0000
  C   C100      1.0  0.15377  0.50316  0.33359  1.0000
  C   C101      1.0  0.14941  0.52309  0.33933  1.0000
  H   H42       1.0  0.18317  0.48276  0.21051  1.0000
  N   N39       1.0  0.15851  0.54178  0.27882  1.0000
  C   C102      1.0  0.15378  0.56068  0.28228  1.0000
  H   H43       1.0  0.16033  0.57345  0.23208  1.0000
  C   C103      1.0  0.54111  0.70021  0.32604  1.0000
  C   C104      1.0  0.52193  0.69060  0.26179  1.0000
  N   N40       1.0  0.50305  0.66709  0.26750  1.0000
  C   C105      1.0  0.50136  0.65148  0.33358  1.0000
  C   C106      1.0  0.48144  0.62719  0.33929  1.0000
  H   H44       1.0  0.52173  0.70129  0.21056  1.0000
  N   N41       1.0  0.46273  0.61760  0.27880  1.0000
  C   C107      1.0  0.44386  0.59397  0.28222  1.0000
  H   H45       1.0  0.43106  0.58776  0.23209  1.0000
  C   C108      1.0  0.30442  0.84179  0.32628  1.0000
  C   C109      1.0  0.31403  0.83222  0.26198  1.0000
  N   N42       1.0  0.33755  0.83687  0.26764  1.0000
  C   C110      1.0  0.35315  0.85079  0.33370  1.0000
  C   C111      1.0  0.37745  0.85518  0.33939  1.0000
  H   H46       1.0  0.30333  0.82133  0.21078  1.0000
  N   N43       1.0  0.38704  0.84607  0.27886  1.0000
  C   C112      1.0  0.41067  0.85083  0.28224  1.0000
  H   H47       1.0  0.41688  0.84425  0.23209  1.0000
  C   C113      1.0  0.48540  0.14280  0.27830  1.0000
  C   C114      1.0  0.46560  0.14732  0.28300  1.0000
  H   H48       1.0  0.45254  0.14061  0.23365  1.0000
  C   C115      1.0  0.56209  0.13708  0.32693  1.0000
  C   C116      1.0  0.54330  0.12833  0.26123  1.0000
  C   C117      1.0  0.52422  0.13383  0.26652  1.0000
  N   N44       1.0  0.50553  0.12478  0.20619  1.0000
  N   N45       1.0  0.48720  0.12908  0.21161  1.0000
  H   H49       1.0  0.54294  0.11712  0.21075  1.0000
  C   C118      1.0  0.66105  0.51912  0.27840  1.0000
  C   C119      1.0  0.68537  0.53892  0.28315  1.0000
  H   H50       1.0  0.69174  0.55200  0.23386  1.0000
  C   C120      1.0  0.57862  0.44247  0.32691  1.0000
  C   C121      1.0  0.58866  0.46126  0.26123  1.0000
  C   C122      1.0  0.61326  0.48033  0.26652  1.0000
  N   N46       1.0  0.62291  0.49904  0.20626  1.0000
  N   N47       1.0  0.64554  0.51736  0.21173  1.0000
  H   H51       1.0  0.57781  0.46165  0.21080  1.0000
  C   C123      1.0  0.86181  0.34351  0.27845  1.0000
  C   C124      1.0  0.85728  0.31918  0.28319  1.0000
  H   H52       1.0  0.86400  0.31282  0.23391  1.0000
  C   C125      1.0  0.86756  0.42593  0.32699  1.0000
  C   C126      1.0  0.87631  0.41588  0.26129  1.0000
  C   C127      1.0  0.87080  0.39129  0.26662  1.0000
  N   N48       1.0  0.87985  0.38164  0.20634  1.0000
  N   N49       1.0  0.87554  0.35901  0.21179  1.0000
  H   H53       1.0  0.88755  0.42673  0.21088  1.0000
  C   C128      1.0  0.93851  0.50924  0.32009  1.0000
  C   C129      1.0  0.95217  0.50489  0.25463  1.0000
  C   C130      1.0  0.97795  0.51878  0.25422  1.0000
  N   N50       1.0  0.99149  0.51412  0.19487  1.0000
  H   H54       1.0  0.94345  0.49116  0.20836  1.0000
  C   C131      1.0  0.46059  0.48554  0.25721  1.0000
  C   C132      1.0  0.44883  0.49954  0.26050  1.0000
  H   H55       1.0  0.45372  0.51350  0.21535  1.0000
  C   C133      1.0  0.49532  0.43014  0.32020  1.0000
  C   C134      1.0  0.49969  0.44817  0.25477  1.0000
  C   C135      1.0  0.48579  0.46005  0.25433  1.0000
  N   N51       1.0  0.49045  0.47825  0.19497  1.0000
  N   N52       1.0  0.47849  0.49034  0.19635  1.0000
  H   H56       1.0  0.51340  0.45316  0.20844  1.0000
  C   C136      1.0  0.51907  0.97600  0.25718  1.0000
  C   C137      1.0  0.50508  0.95024  0.26049  1.0000
  H   H57       1.0  0.49111  0.94116  0.21533  1.0000
  C   C138      1.0  0.57444  0.06613  0.32014  1.0000
  C   C139      1.0  0.55642  0.05246  0.25471  1.0000
  C   C140      1.0  0.54454  0.02669  0.25427  1.0000
  N   N53       1.0  0.52635  0.01314  0.19492  1.0000
  N   N54       1.0  0.51426  0.98909  0.19631  1.0000
  H   H58       1.0  0.55141  0.06118  0.20841  1.0000
  C   C141      1.0  0.00265  0.02451  0.33458  1.0000
  C   C142      1.0  0.00233  0.97926  0.33966  1.0000
  C   C143      1.0  0.97970  0.97911  0.33874  1.0000
  C   C144      1.0  0.98016  0.00189  0.33641  1.0000
  H   H59       1.0  0.00215  0.96285  0.34090  1.0000
  H   H60       1.0  0.96389  0.00201  0.33641  1.0000
  C   C145      1.0  0.00263  0.22778  0.33642  1.0000
  C   C146      1.0  0.98001  0.20563  0.32574  1.0000
  C   C147      1.0  0.98036  0.18323  0.32687  1.0000
  C   C148      1.0  0.00269  0.18291  0.33629  1.0000
  H   H61       1.0  0.96417  0.16697  0.31963  1.0000
  H   H62       1.0  0.00262  0.24410  0.33655  1.0000
  C   C149      1.0  0.77621  0.79778  0.34752  1.0000
  C   C150      1.0  0.77672  0.77565  0.33692  1.0000
  C   C151      1.0  0.79888  0.77517  0.32681  1.0000
  C   C152      1.0  0.82128  0.79790  0.32862  1.0000
  C   C153      1.0  0.82159  0.82054  0.33793  1.0000
  C   C154      1.0  0.79891  0.82019  0.34668  1.0000
  H   H63       1.0  0.83755  0.79797  0.32179  1.0000
  H   H64       1.0  0.79895  0.83643  0.35401  1.0000
  H   H65       1.0  0.76039  0.75931  0.33672  1.0000
  C   C155      1.0  0.20696  0.97930  0.34817  1.0000
  C   C156      1.0  0.22904  0.00192  0.33659  1.0000
  C   C157      1.0  0.22941  0.02446  0.32504  1.0000
  C   C158      1.0  0.20663  0.02403  0.32607  1.0000
  C   C159      1.0  0.18395  0.00173  0.33674  1.0000
  C   C160      1.0  0.18452  0.97953  0.34727  1.0000
  H   H66       1.0  0.20658  0.04022  0.31863  1.0000
  H   H67       1.0  0.16835  0.96327  0.35482  1.0000
  H   H68       1.0  0.24539  0.00197  0.33664  1.0000
  C   C161      1.0  0.16986  0.44509  0.32604  1.0000
  C   C162      1.0  0.19504  0.45246  0.31943  1.0000
  C   C163      1.0  0.20341  0.43535  0.31979  1.0000
  C   C164      1.0  0.18577  0.41007  0.32842  1.0000
  C   C165      1.0  0.16026  0.40180  0.33587  1.0000
  C   C166      1.0  0.15275  0.41970  0.33520  1.0000
  H   H69       1.0  0.19165  0.39751  0.32974  1.0000
  H   H70       1.0  0.13440  0.41415  0.33848  1.0000
  H   H71       1.0  0.20769  0.47090  0.31748  1.0000
  C   C167      1.0  0.55943  0.72565  0.32600  1.0000
  C   C168      1.0  0.55207  0.74346  0.31939  1.0000
  C   C169      1.0  0.56920  0.76895  0.31968  1.0000
  C   C170      1.0  0.59448  0.77657  0.32828  1.0000
  C   C171      1.0  0.60273  0.75933  0.33577  1.0000
  C   C172      1.0  0.58481  0.73391  0.33514  1.0000
  H   H72       1.0  0.60704  0.79500  0.32956  1.0000
  H   H73       1.0  0.59036  0.72111  0.33844  1.0000
  H   H74       1.0  0.53364  0.73769  0.31741  1.0000
  C   C173      1.0  0.27897  0.83464  0.32634  1.0000
  C   C174      1.0  0.26116  0.80947  0.31971  1.0000
  C   C175      1.0  0.23568  0.80111  0.32023  1.0000
  C   C176      1.0  0.22805  0.81876  0.32908  1.0000
  C   C177      1.0  0.24530  0.84425  0.33658  1.0000
  C   C178      1.0  0.27071  0.85176  0.33567  1.0000
  H   H75       1.0  0.20962  0.81288  0.33055  1.0000
  H   H76       1.0  0.28352  0.87010  0.33896  1.0000
  H   H77       1.0  0.26694  0.79682  0.31758  1.0000
  C   C179      1.0  0.44616  0.16920  0.35271  1.0000
  C   C180      1.0  0.45346  0.19435  0.36018  1.0000
  C   C181      1.0  0.43630  0.20265  0.35903  1.0000
  C   C182      1.0  0.41106  0.18500  0.34923  1.0000
  C   C183      1.0  0.40284  0.15952  0.34136  1.0000
  C   C184      1.0  0.42079  0.15207  0.34254  1.0000
  H   H78       1.0  0.39849  0.19087  0.34728  1.0000
  H   H79       1.0  0.41529  0.13374  0.33866  1.0000
  H   H80       1.0  0.47187  0.20704  0.36304  1.0000
  C   C185      1.0  0.72669  0.55832  0.35288  1.0000
  C   C186      1.0  0.74453  0.55101  0.36028  1.0000
  C   C187      1.0  0.77000  0.56817  0.35931  1.0000
  C   C188      1.0  0.77760  0.59342  0.34978  1.0000
  C   C189      1.0  0.76034  0.60164  0.34197  1.0000
  C   C190      1.0  0.73493  0.58369  0.34288  1.0000
  H   H81       1.0  0.79603  0.60598  0.34801  1.0000
  H   H82       1.0  0.72212  0.58921  0.33914  1.0000
  H   H83       1.0  0.73881  0.53260  0.36307  1.0000
  C   C191      1.0  0.83537  0.27786  0.35294  1.0000
  C   C192      1.0  0.81022  0.26002  0.36031  1.0000
  C   C193      1.0  0.80191  0.23455  0.35931  1.0000
  C   C194      1.0  0.81956  0.22695  0.34976  1.0000
  C   C195      1.0  0.84504  0.24421  0.34192  1.0000
  C   C196      1.0  0.85250  0.26962  0.34288  1.0000
  H   H84       1.0  0.81368  0.20852  0.34792  1.0000
  H   H85       1.0  0.87083  0.28243  0.33914  1.0000
  H   H86       1.0  0.79754  0.26575  0.36312  1.0000
  C   C197      1.0  0.12929  0.57807  0.34511  1.0000
  C   C198      1.0  0.14491  0.60391  0.34323  1.0000
  C   C199      1.0  0.13507  0.61990  0.34166  1.0000
  H   H87       1.0  0.16357  0.61113  0.34683  1.0000
  C   C200      1.0  0.42063  0.51030  0.33536  1.0000
  C   C201      1.0  0.43610  0.53604  0.34001  1.0000
  C   C202      1.0  0.42648  0.55209  0.34508  1.0000
  C   C203      1.0  0.40063  0.54186  0.34327  1.0000
  C   C204      1.0  0.38463  0.51602  0.34167  1.0000
  C   C205      1.0  0.39496  0.50052  0.33798  1.0000
  H   H88       1.0  0.39341  0.55330  0.34682  1.0000
  H   H89       1.0  0.38364  0.48185  0.33302  1.0000
  H   H90       1.0  0.45480  0.54324  0.33915  1.0000
  C   C206      1.0  0.49433  0.91129  0.33534  1.0000
  C   C207      1.0  0.46859  0.90101  0.34001  1.0000
  C   C208      1.0  0.45255  0.87534  0.34510  1.0000
  C   C209      1.0  0.46277  0.85972  0.34327  1.0000
  C   C210      1.0  0.48862  0.86957  0.34163  1.0000
  C   C211      1.0  0.50412  0.89540  0.33795  1.0000
  H   H91       1.0  0.45134  0.84106  0.34681  1.0000
  H   H92       1.0  0.52279  0.90276  0.33296  1.0000
  H   H93       1.0  0.46139  0.91251  0.33918  1.0000
  C   C212      1.0  0.58478  0.09201  0.32616  1.0000
  C   C213      1.0  0.56934  0.10235  0.32592  1.0000
  C   C214      1.0  0.57887  0.12803  0.32998  1.0000
  C   C215      1.0  0.60468  0.14357  0.33685  1.0000
  C   C216      1.0  0.62071  0.13376  0.33582  1.0000
  C   C217      1.0  0.61041  0.10794  0.33146  1.0000
  H   H94       1.0  0.61189  0.16224  0.33842  1.0000
  H   H95       1.0  0.62174  0.10055  0.33122  1.0000
  H   H96       1.0  0.55065  0.09082  0.32445  1.0000
  C   C218      1.0  0.51087  0.41980  0.32617  1.0000
  C   C219      1.0  0.53664  0.43523  0.32592  1.0000
  C   C220      1.0  0.55279  0.42569  0.32997  1.0000
  C   C221      1.0  0.54251  0.39988  0.33684  1.0000
  C   C222      1.0  0.51666  0.38385  0.33584  1.0000
  C   C223      1.0  0.50115  0.39417  0.33148  1.0000
  H   H97       1.0  0.55396  0.39266  0.33838  1.0000
  H   H98       1.0  0.48243  0.38284  0.33126  1.0000
  H   H99       1.0  0.54381  0.45392  0.32446  1.0000
  C   C224      1.0  0.91263  0.49368  0.32612  1.0000
  C   C225      1.0  0.90229  0.46791  0.32590  1.0000
  C   C226      1.0  0.87661  0.45176  0.33000  1.0000
  C   C227      1.0  0.86107  0.46202  0.33690  1.0000
  C   C228      1.0  0.87087  0.48786  0.33587  1.0000
  C   C229      1.0  0.89670  0.50339  0.33144  1.0000
  H   H100      1.0  0.84240  0.45057  0.33850  1.0000
  H   H101      1.0  0.90408  0.52211  0.33122  1.0000
  H   H102      1.0  0.91382  0.46075  0.32441  1.0000
  C   C230      1.0  0.00275  0.16020  0.33630  1.0000
  C   C231      1.0  0.84429  0.84330  0.33852  1.0000
  C   C232      1.0  0.85471  0.85605  0.41928  1.0000
  N   N55       1.0  0.87640  0.87777  0.41896  1.0000
  C   C233      1.0  0.88925  0.88865  0.34304  1.0000
  C   C234      1.0  0.91178  0.91129  0.34319  1.0000
  H   H103      1.0  0.84618  0.84906  0.47916  1.0000
  N   N56       1.0  0.92267  0.92402  0.41933  1.0000
  C   C235      1.0  0.94433  0.94577  0.41995  1.0000
  H   H104      1.0  0.95136  0.95418  0.47997  1.0000
  C   C236      1.0  0.16103  0.00157  0.33688  1.0000
  C   C237      1.0  0.14423  0.99138  0.40895  1.0000
  N   N57       1.0  0.12256  0.99143  0.40857  1.0000
  H   H105      1.0  0.14830  0.98418  0.46331  1.0000
  C   C238      1.0  0.14249  0.37613  0.34342  1.0000
  C   C239      1.0  0.12309  0.36750  0.40654  1.0000
  H   H106      1.0  0.12192  0.37951  0.44984  1.0000
  C   C240      1.0  0.71084  0.77529  0.41704  1.0000
  C   C241      1.0  0.73520  0.77990  0.41827  1.0000
  H   H107      1.0  0.73973  0.77025  0.46208  1.0000
  C   C242      1.0  0.62839  0.76721  0.34335  1.0000
  C   C243      1.0  0.63701  0.75645  0.40656  1.0000
  C   C244      1.0  0.66209  0.76348  0.41072  1.0000
  N   N58       1.0  0.67041  0.75278  0.46942  1.0000
  N   N59       1.0  0.69346  0.75835  0.47234  1.0000
  H   H108      1.0  0.62499  0.74328  0.44989  1.0000
  C   C245      1.0  0.22954  0.93652  0.41802  1.0000
  C   C246      1.0  0.22495  0.95628  0.41914  1.0000
  H   H109      1.0  0.23474  0.97056  0.46242  1.0000
  C   C247      1.0  0.23742  0.86203  0.34442  1.0000
  C   C248      1.0  0.24830  0.88147  0.40739  1.0000
  C   C249      1.0  0.24130  0.89954  0.41167  1.0000
  N   N60       1.0  0.25212  0.91863  0.47000  1.0000
  N   N61       1.0  0.24658  0.93613  0.47294  1.0000
  H   H110      1.0  0.26154  0.88265  0.45041  1.0000
  C   C250      1.0  0.25268  0.04656  0.31556  1.0000
  C   C251      1.0  0.26018  0.06674  0.37451  1.0000
  N   N62       1.0  0.28394  0.08554  0.37526  1.0000
  C   C252      1.0  0.30161  0.08665  0.31944  1.0000
  C   C253      1.0  0.32656  0.10552  0.32341  1.0000
  H   H111      1.0  0.24836  0.06670  0.42163  1.0000
  N   N63       1.0  0.33507  0.12442  0.38290  1.0000
  C   C254      1.0  0.35917  0.14220  0.38871  1.0000
  H   H112      1.0  0.36407  0.15544  0.43670  1.0000
  C   C255      1.0  0.79765  0.75186  0.31765  1.0000
  C   C256      1.0  0.81017  0.74426  0.37697  1.0000
  N   N64       1.0  0.80520  0.72050  0.37753  1.0000
  C   C257      1.0  0.78874  0.70289  0.32127  1.0000
  C   C258      1.0  0.78265  0.67793  0.32498  1.0000
  H   H113      1.0  0.82192  0.75606  0.42422  1.0000
  N   N65       1.0  0.79294  0.66935  0.38459  1.0000
  C   C259      1.0  0.78662  0.64525  0.39007  1.0000
  H   H114      1.0  0.79486  0.64028  0.43824  1.0000
  C   C260      1.0  0.95793  0.20685  0.31670  1.0000
  C   C261      1.0  0.93783  0.19433  0.37607  1.0000
  N   N66       1.0  0.91903  0.19930  0.37678  1.0000
  C   C262      1.0  0.91789  0.21580  0.32072  1.0000
  C   C263      1.0  0.89902  0.22189  0.32457  1.0000
  H   H115      1.0  0.93785  0.18253  0.42313  1.0000
  N   N67       1.0  0.88015  0.21158  0.38416  1.0000
  C   C264      1.0  0.86237  0.21790  0.38978  1.0000
  H   H116      1.0  0.84915  0.20962  0.43789  1.0000
  C   C265      1.0  0.22923  0.44428  0.31538  1.0000
  C   C266      1.0  0.24123  0.43744  0.37983  1.0000
  N   N68       1.0  0.26620  0.44910  0.38333  1.0000
  C   C267      1.0  0.28095  0.46733  0.32569  1.0000
  C   C268      1.0  0.30683  0.47993  0.33184  1.0000
  H   H117      1.0  0.23144  0.42468  0.42799  1.0000
  N   N69       1.0  0.31878  0.47427  0.39484  1.0000
  C   C269      1.0  0.34367  0.48606  0.40106  1.0000
  H   H118      1.0  0.35135  0.48057  0.44967  1.0000
  C   C270      1.0  0.56029  0.78585  0.31521  1.0000
  C   C271      1.0  0.56717  0.80472  0.37959  1.0000
  N   N70       1.0  0.55549  0.81801  0.38317  1.0000
  C   C272      1.0  0.53725  0.81453  0.32557  1.0000
  C   C273      1.0  0.52467  0.82783  0.33173  1.0000
  H   H119      1.0  0.57988  0.80764  0.42786  1.0000
  N   N71       1.0  0.53035  0.84545  0.39472  1.0000
  C   C274      1.0  0.51858  0.85856  0.40094  1.0000
  H   H120      1.0  0.52407  0.87173  0.44956  1.0000
  C   C275      1.0  0.21877  0.77530  0.31573  1.0000
  C   C276      1.0  0.19993  0.76329  0.38018  1.0000
  N   N72       1.0  0.18662  0.73832  0.38360  1.0000
  C   C277      1.0  0.19009  0.72359  0.32588  1.0000
  C   C278      1.0  0.17680  0.69771  0.33194  1.0000
  H   H121      1.0  0.19699  0.77308  0.42844  1.0000
  N   N73       1.0  0.15919  0.68575  0.39497  1.0000
  C   C279      1.0  0.14609  0.66086  0.40114  1.0000
  H   H122      1.0  0.13292  0.65317  0.44978  1.0000
  C   C280      1.0  0.47469  0.26919  0.42270  1.0000
  C   C281      1.0  0.46305  0.24340  0.42750  1.0000
  H   H123      1.0  0.46830  0.23557  0.47652  1.0000
  C   C282      1.0  0.50589  0.35779  0.33793  1.0000
  C   C283      1.0  0.51182  0.34588  0.40570  1.0000
  C   C284      1.0  0.49923  0.32001  0.41094  1.0000
  N   N74       1.0  0.50414  0.30796  0.47597  1.0000
  N   N75       1.0  0.49258  0.28392  0.48139  1.0000
  H   H124      1.0  0.52467  0.35598  0.45337  1.0000
  C   C285      1.0  0.79817  0.52980  0.42294  1.0000
  C   C286      1.0  0.78402  0.54144  0.42780  1.0000
  H   H125      1.0  0.77092  0.53617  0.47677  1.0000
  C   C287      1.0  0.85558  0.49863  0.33801  1.0000
  C   C288      1.0  0.83775  0.49269  0.40583  1.0000
  C   C289      1.0  0.82447  0.50528  0.41110  1.0000
  N   N76       1.0  0.80751  0.50036  0.47617  1.0000
  N   N77       1.0  0.79503  0.51192  0.48162  1.0000
  H   H126      1.0  0.83502  0.47985  0.45350  1.0000
  C   C290      1.0  0.73537  0.20643  0.42289  1.0000
  C   C291      1.0  0.76116  0.22057  0.42775  1.0000
  H   H127      1.0  0.76898  0.23365  0.47674  1.0000
  C   C292      1.0  0.64678  0.14906  0.33791  1.0000
  C   C293      1.0  0.65868  0.16687  0.40578  1.0000
  C   C294      1.0  0.68455  0.18015  0.41104  1.0000
  N   N78       1.0  0.69659  0.19711  0.47610  1.0000
  N   N79       1.0  0.72063  0.20958  0.48155  1.0000
  H   H128      1.0  0.64858  0.16963  0.45339  1.0000
  C   C295      1.0  0.14329  0.48430  0.39908  1.0000
  C   C296      1.0  0.14776  0.46446  0.39471  1.0000
  H   H129      1.0  0.14090  0.45135  0.44387  1.0000
  C   C297      1.0  0.13830  0.56132  0.34969  1.0000
  C   C298      1.0  0.12904  0.54239  0.41478  1.0000
  C   C299      1.0  0.13448  0.52324  0.41010  1.0000
  N   N80       1.0  0.12514  0.50446  0.47007  1.0000
  N   N81       1.0  0.12938  0.48608  0.46505  1.0000
  C   C300      1.0  0.52022  0.65986  0.39902  1.0000
  C   C301      1.0  0.54006  0.68418  0.39468  1.0000
  H   H130      1.0  0.55319  0.69042  0.44378  1.0000
  C   C302      1.0  0.44322  0.57784  0.34959  1.0000
  C   C303      1.0  0.46215  0.58751  0.41470  1.0000
  C   C304      1.0  0.48130  0.61209  0.41000  1.0000
  N   N82       1.0  0.50009  0.62153  0.46994  1.0000
  N   N83       1.0  0.51846  0.64416  0.46494  1.0000
  H   H131      1.0  0.46259  0.57640  0.46400  1.0000
  C   C305      1.0  0.34477  0.86127  0.39918  1.0000
  C   C306      1.0  0.32045  0.85679  0.39486  1.0000
  H   H132      1.0  0.31421  0.86363  0.44408  1.0000
  C   C307      1.0  0.42679  0.86632  0.34962  1.0000
  C   C308      1.0  0.41713  0.87557  0.41478  1.0000
  C   C309      1.0  0.39254  0.87012  0.41010  1.0000
  N   N84       1.0  0.38310  0.87946  0.47008  1.0000
  N   N85       1.0  0.36047  0.87520  0.46511  1.0000
  H   H133      1.0  0.42824  0.88711  0.46408  1.0000
  C   C310      1.0  0.46448  0.16208  0.35233  1.0000
  C   C311      1.0  0.48363  0.17146  0.41674  1.0000
  N   N86       1.0  0.50246  0.16676  0.41076  1.0000
  C   C312      1.0  0.50418  0.15300  0.34413  1.0000
  C   C313      1.0  0.52404  0.14852  0.33813  1.0000
  H   H134      1.0  0.48380  0.18223  0.46838  1.0000
  N   N87       1.0  0.54264  0.15725  0.39901  1.0000
  C   C314      1.0  0.56140  0.15232  0.39524  1.0000
  H   H135      1.0  0.57413  0.15867  0.44559  1.0000
  C   C315      1.0  0.70125  0.54000  0.35244  1.0000
  C   C316      1.0  0.69147  0.52084  0.41679  1.0000
  N   N88       1.0  0.66793  0.50202  0.41077  1.0000
  C   C317      1.0  0.65246  0.50033  0.34416  1.0000
  C   C318      1.0  0.62812  0.48048  0.33811  1.0000
  H   H136      1.0  0.70206  0.52065  0.46843  1.0000
  N   N89       1.0  0.61824  0.46186  0.39892  1.0000
  C   C319      1.0  0.59455  0.44309  0.39508  1.0000
  H   H137      1.0  0.58815  0.43039  0.44551  1.0000
  C   C320      1.0  0.84250  0.30330  0.35251  1.0000
  C   C321      1.0  0.83311  0.31308  0.41687  1.0000
  N   N90       1.0  0.83782  0.33662  0.41084  1.0000
  C   C322      1.0  0.85160  0.35209  0.34423  1.0000
  C   C323      1.0  0.85609  0.37643  0.33819  1.0000
  H   H138      1.0  0.82233  0.30249  0.46849  1.0000
  N   N91       1.0  0.84735  0.38630  0.39902  1.0000
  C   C324      1.0  0.85227  0.40999  0.39521  1.0000
  H   H139      1.0  0.84595  0.41638  0.44561  1.0000
  C   C325      1.0  0.99011  0.53741  0.31943  1.0000
  N   N92       1.0  0.97655  0.54159  0.38031  1.0000
  C   C326      1.0  0.95159  0.52853  0.38201  1.0000
  H   H140      1.0  0.94264  0.53217  0.43155  1.0000
  C   C327      1.0  0.43098  0.49484  0.32703  1.0000
  C   C328      1.0  0.42487  0.47523  0.38729  1.0000
  N   N93       1.0  0.43671  0.46214  0.38304  1.0000
  C   C329      1.0  0.45427  0.46658  0.32095  1.0000
  C   C330      1.0  0.46716  0.45359  0.31954  1.0000
  H   H141      1.0  0.41238  0.47137  0.43746  1.0000
  N   N94       1.0  0.46297  0.43583  0.38040  1.0000
  C   C331      1.0  0.47604  0.42395  0.38214  1.0000
  H   H142      1.0  0.47238  0.41133  0.43158  1.0000
  C   C332      1.0  0.50978  0.93710  0.32702  1.0000
  C   C333      1.0  0.52937  0.95060  0.38733  1.0000
  N   N95       1.0  0.54247  0.97553  0.38302  1.0000
  C   C334      1.0  0.53802  0.98864  0.32091  1.0000
  C   C335      1.0  0.55101  0.01452  0.31949  1.0000
  H   H143      1.0  0.53326  0.94197  0.43742  1.0000
  N   N96       1.0  0.56877  0.02809  0.38034  1.0000
  C   C336      1.0  0.58066  0.05305  0.38202  1.0000
  H   H144      1.0  0.59325  0.06201  0.43158  1.0000
