data_image0
_chemical_formula_structural       C3NC3NC5NC5NC20H18N4C3NC3NC5NC5NC20H18N4C3NC3NC5NC5NC20H18N4C3NC3NC5NC5NC20H18N4C3NC3NC5NC5NC20H18N4C3NC3NC5NC5NC20H18N4C2HC3NHNH2CHC2HC2NHNH2CHC2HC2NHNH2CHC2HC2NHNH2CHC2HC2NHNH2CHC2HC2NHNH2CHC2HC2NHNH2CHC2HC2NHNH2CHC2HC3NHNH2CHC3HC3NHNH2CHC2HC3NHNH2CHC2HC2NHNH2CHC8H8C8H8C8H8C8H8C8H8C8H8C2NC3H2NH2CHC2NC4H2NH2CHC2NC4H2NH2CHC2NC4H2NH2CHC2NC4H2NH2CHC2NC4H2NH2CHC2NC4H2NH2CHC2NC4H2NH2CHC2NC3H2NH2CHC2NC2H2NH2CHC2NC3H2NH2CHC2NC4H2NH2CH
_chemical_formula_sum              "C408 N96 H276"
_cell_length_a       79.9641
_cell_length_b       79.964
_cell_length_c       14.9634
_cell_angle_alpha    90.004
_cell_angle_beta     89.9214
_cell_angle_gamma    120

_space_group_name_H-M_alt    "P 1"
_space_group_IT_number       1

loop_
  _space_group_symop_operation_xyz
  'x, y, z'

loop_
  _atom_site_type_symbol
  _atom_site_label
  _atom_site_symmetry_multiplicity
  _atom_site_fract_x
  _atom_site_fract_y
  _atom_site_fract_z
  _atom_site_occupancy
  C   C1        1.0  0.20908  0.38097  0.31827  1.0000
  C   C2        1.0  0.22626  0.38079  0.31940  1.0000
  C   C3        1.0  0.24145  0.39989  0.31932  1.0000
  N   N1        1.0  0.23291  0.41089  0.31853  1.0000
  C   C4        1.0  0.21335  0.40018  0.31811  1.0000
  C   C5        1.0  0.19939  0.40627  0.31745  1.0000
  C   C6        1.0  0.20380  0.42583  0.31744  1.0000
  N   N2        1.0  0.22142  0.44191  0.31743  1.0000
  C   C7        1.0  0.22023  0.45818  0.31756  1.0000
  C   C8        1.0  0.20056  0.45217  0.31753  1.0000
  C   C9        1.0  0.19044  0.43225  0.31787  1.0000
  C   C10       1.0  0.23562  0.47760  0.31734  1.0000
  C   C11       1.0  0.25557  0.48330  0.31769  1.0000
  N   N3        1.0  0.26409  0.47230  0.31832  1.0000
  C   C12       1.0  0.28364  0.48301  0.31914  1.0000
  C   C13       1.0  0.28791  0.50223  0.31850  1.0000
  C   C14       1.0  0.27075  0.50241  0.31809  1.0000
  C   C15       1.0  0.29762  0.47696  0.32013  1.0000
  C   C16       1.0  0.29324  0.45743  0.31992  1.0000
  N   N4        1.0  0.27561  0.44135  0.31964  1.0000
  C   C17       1.0  0.27680  0.42508  0.32019  1.0000
  C   C18       1.0  0.29651  0.43115  0.32037  1.0000
  C   C19       1.0  0.30663  0.45107  0.32068  1.0000
  C   C20       1.0  0.26141  0.40563  0.32038  1.0000
  C   C21       1.0  0.26651  0.39090  0.32230  1.0000
  C   C22       1.0  0.27975  0.36380  0.32440  1.0000
  C   C23       1.0  0.27389  0.36851  0.24351  1.0000
  C   C24       1.0  0.26738  0.38194  0.24244  1.0000
  C   C25       1.0  0.31748  0.49157  0.32202  1.0000
  C   C26       1.0  0.35632  0.52261  0.32423  1.0000
  C   C27       1.0  0.34761  0.51304  0.24337  1.0000
  C   C28       1.0  0.32839  0.49769  0.24226  1.0000
  C   C29       1.0  0.23071  0.49247  0.31708  1.0000
  C   C30       1.0  0.23131  0.50207  0.23688  1.0000
  C   C31       1.0  0.22770  0.51758  0.23765  1.0000
  C   C32       1.0  0.22314  0.52366  0.31803  1.0000
  C   C33       1.0  0.17946  0.39179  0.31711  1.0000
  C   C34       1.0  0.16870  0.38688  0.23700  1.0000
  C   C35       1.0  0.13908  0.36484  0.31819  1.0000
  C   C36       1.0  0.14872  0.37365  0.23783  1.0000
  H   H1        1.0  0.14119  0.37069  0.17916  1.0000
  H   H2        1.0  0.17525  0.39329  0.17795  1.0000
  H   H3        1.0  0.19573  0.36886  0.31792  1.0000
  H   H4        1.0  0.22725  0.36853  0.32011  1.0000
  H   H5        1.0  0.23994  0.42474  0.31851  1.0000
  H   H6        1.0  0.25706  0.45845  0.31860  1.0000
  H   H7        1.0  0.17572  0.42400  0.31836  1.0000
  H   H8        1.0  0.19437  0.46068  0.31754  1.0000
  H   H9        1.0  0.23483  0.49814  0.17779  1.0000
  H   H10       1.0  0.22862  0.52457  0.17892  1.0000
  H   H11       1.0  0.26981  0.51469  0.31814  1.0000
  H   H12       1.0  0.30125  0.51436  0.31858  1.0000
  H   H13       1.0  0.30274  0.42269  0.32049  1.0000
  H   H14       1.0  0.32134  0.45936  0.32117  1.0000
  H   H15       1.0  0.32227  0.49135  0.18257  1.0000
  H   H16       1.0  0.35493  0.51756  0.18420  1.0000
  H   H17       1.0  0.26378  0.38552  0.18268  1.0000
  H   H18       1.0  0.27501  0.36280  0.18423  1.0000
  N   N5        1.0  0.37384  0.53813  0.32921  1.0000
  N   N6        1.0  0.22103  0.53913  0.31423  1.0000
  N   N7        1.0  0.11998  0.35342  0.31448  1.0000
  N   N8        1.0  0.28752  0.35248  0.32938  1.0000
  C   C37       1.0  0.67504  0.82871  0.31976  1.0000
  C   C38       1.0  0.67521  0.84607  0.32089  1.0000
  C   C39       1.0  0.65611  0.84216  0.32072  1.0000
  N   N9        1.0  0.64512  0.82262  0.31988  1.0000
  C   C40       1.0  0.65582  0.81376  0.31951  1.0000
  C   C41       1.0  0.64974  0.79372  0.31877  1.0000
  C   C42       1.0  0.63018  0.77857  0.31871  1.0000
  N   N10       1.0  0.61410  0.78011  0.31877  1.0000
  C   C43       1.0  0.59782  0.76264  0.31884  1.0000
  C   C44       1.0  0.60383  0.74898  0.31868  1.0000
  C   C45       1.0  0.62376  0.75879  0.31902  1.0000
  C   C46       1.0  0.57840  0.75861  0.31868  1.0000
  C   C47       1.0  0.57270  0.77286  0.31912  1.0000
  N   N11       1.0  0.58371  0.79239  0.31969  1.0000
  C   C48       1.0  0.57299  0.80123  0.32059  1.0000
  C   C49       1.0  0.55377  0.78628  0.32011  1.0000
  C   C50       1.0  0.55359  0.76894  0.31970  1.0000
  C   C51       1.0  0.57904  0.82126  0.32144  1.0000
  C   C52       1.0  0.59858  0.83640  0.32119  1.0000
  N   N12       1.0  0.61466  0.83486  0.32099  1.0000
  C   C53       1.0  0.63093  0.85233  0.32145  1.0000
  C   C54       1.0  0.62485  0.86596  0.32152  1.0000
  C   C55       1.0  0.60493  0.85615  0.32181  1.0000
  C   C56       1.0  0.65038  0.85638  0.32168  1.0000
  C   C57       1.0  0.66511  0.87621  0.32355  1.0000
  C   C58       1.0  0.69221  0.91654  0.32551  1.0000
  C   C59       1.0  0.68753  0.90596  0.24466  1.0000
  C   C60       1.0  0.67411  0.88602  0.24367  1.0000
  C   C61       1.0  0.56443  0.82651  0.32327  1.0000
  C   C62       1.0  0.53341  0.83435  0.32539  1.0000
  C   C63       1.0  0.54300  0.83514  0.24454  1.0000
  C   C64       1.0  0.55834  0.83127  0.24346  1.0000
  C   C65       1.0  0.56354  0.73884  0.31840  1.0000
  C   C66       1.0  0.55395  0.72985  0.23821  1.0000
  C   C67       1.0  0.53844  0.71072  0.23897  1.0000
  C   C68       1.0  0.53233  0.70008  0.31932  1.0000
  C   C69       1.0  0.66422  0.78827  0.31842  1.0000
  C   C70       1.0  0.66918  0.78245  0.23827  1.0000
  C   C71       1.0  0.69118  0.77485  0.31944  1.0000
  C   C72       1.0  0.68240  0.77568  0.23908  1.0000
  H   H19       1.0  0.68540  0.77113  0.18040  1.0000
  H   H20       1.0  0.66281  0.78259  0.17923  1.0000
  H   H21       1.0  0.68715  0.82746  0.31944  1.0000
  H   H22       1.0  0.68747  0.85932  0.32162  1.0000
  H   H23       1.0  0.63127  0.81580  0.31973  1.0000
  H   H24       1.0  0.59756  0.79921  0.31971  1.0000
  H   H25       1.0  0.63200  0.75232  0.31944  1.0000
  H   H26       1.0  0.59533  0.73429  0.31864  1.0000
  H   H27       1.0  0.55790  0.73731  0.17916  1.0000
  H   H28       1.0  0.53147  0.70468  0.18025  1.0000
  H   H29       1.0  0.54132  0.75572  0.31983  1.0000
  H   H30       1.0  0.54164  0.78749  0.32026  1.0000
  H   H31       1.0  0.63332  0.88066  0.32152  1.0000
  H   H32       1.0  0.59664  0.86258  0.32220  1.0000
  H   H33       1.0  0.56470  0.83146  0.18378  1.0000
  H   H34       1.0  0.53849  0.83791  0.18533  1.0000
  H   H35       1.0  0.67057  0.87882  0.18395  1.0000
  H   H36       1.0  0.69330  0.91277  0.18538  1.0000
  N   N13       1.0  0.51788  0.83632  0.33030  1.0000
  N   N14       1.0  0.51686  0.68249  0.31552  1.0000
  N   N15       1.0  0.70259  0.76716  0.31571  1.0000
  N   N16       1.0  0.70352  0.93563  0.33041  1.0000
  C   C73       1.0  0.22729  0.84692  0.31697  1.0000
  C   C74       1.0  0.20993  0.82975  0.31808  1.0000
  C   C75       1.0  0.21385  0.81456  0.31800  1.0000
  N   N17       1.0  0.23338  0.82310  0.31726  1.0000
  C   C76       1.0  0.24224  0.84266  0.31687  1.0000
  C   C77       1.0  0.26229  0.85662  0.31627  1.0000
  C   C78       1.0  0.27744  0.85220  0.31640  1.0000
  N   N18       1.0  0.27589  0.83458  0.31649  1.0000
  C   C79       1.0  0.29336  0.83577  0.31680  1.0000
  C   C80       1.0  0.30702  0.85544  0.31678  1.0000
  C   C81       1.0  0.29721  0.86556  0.31694  1.0000
  C   C82       1.0  0.29739  0.82038  0.31672  1.0000
  C   C83       1.0  0.28314  0.80043  0.31700  1.0000
  N   N19       1.0  0.26361  0.79191  0.31743  1.0000
  C   C84       1.0  0.25477  0.77236  0.31823  1.0000
  C   C85       1.0  0.26972  0.76809  0.31783  1.0000
  C   C86       1.0  0.28706  0.78524  0.31757  1.0000
  C   C87       1.0  0.23473  0.75838  0.31901  1.0000
  C   C88       1.0  0.21959  0.76277  0.31870  1.0000
  N   N20       1.0  0.22114  0.78039  0.31843  1.0000
  C   C89       1.0  0.20367  0.77920  0.31884  1.0000
  C   C90       1.0  0.19004  0.75950  0.31894  1.0000
  C   C91       1.0  0.19984  0.74938  0.31928  1.0000
  C   C92       1.0  0.19962  0.79460  0.31902  1.0000
  C   C93       1.0  0.17979  0.78950  0.32093  1.0000
  C   C94       1.0  0.13946  0.77630  0.32309  1.0000
  C   C95       1.0  0.15006  0.78215  0.24217  1.0000
  C   C96       1.0  0.17000  0.78867  0.24108  1.0000
  C   C97       1.0  0.22948  0.73851  0.32087  1.0000
  C   C98       1.0  0.22166  0.69967  0.32307  1.0000
  C   C99       1.0  0.22091  0.70845  0.24218  1.0000
  C   C100      1.0  0.22478  0.72766  0.24107  1.0000
  C   C101      1.0  0.31716  0.82529  0.31673  1.0000
  C   C102      1.0  0.32625  0.82472  0.23669  1.0000
  C   C103      1.0  0.34538  0.82834  0.23775  1.0000
  C   C104      1.0  0.35592  0.83284  0.31829  1.0000
  C   C105      1.0  0.26774  0.87654  0.31596  1.0000
  C   C106      1.0  0.27365  0.88735  0.23588  1.0000
  C   C107      1.0  0.28114  0.91692  0.31710  1.0000
  C   C108      1.0  0.28039  0.90733  0.23674  1.0000
  H   H37       1.0  0.28499  0.91490  0.17809  1.0000
  H   H38       1.0  0.27355  0.88084  0.17683  1.0000
  H   H39       1.0  0.22854  0.86028  0.31662  1.0000
  H   H40       1.0  0.19669  0.82876  0.31872  1.0000
  H   H41       1.0  0.24020  0.81606  0.31725  1.0000
  H   H42       1.0  0.25679  0.79895  0.31747  1.0000
  H   H43       1.0  0.30369  0.88028  0.31741  1.0000
  H   H44       1.0  0.32172  0.86163  0.31690  1.0000
  H   H45       1.0  0.31887  0.82125  0.17750  1.0000
  H   H46       1.0  0.35150  0.82744  0.17913  1.0000
  H   H47       1.0  0.30028  0.78619  0.31779  1.0000
  H   H48       1.0  0.26851  0.75475  0.31797  1.0000
  H   H49       1.0  0.17534  0.75326  0.31893  1.0000
  H   H50       1.0  0.19341  0.73466  0.31973  1.0000
  H   H51       1.0  0.22464  0.73383  0.18135  1.0000
  H   H52       1.0  0.21819  0.70117  0.18298  1.0000
  H   H53       1.0  0.17721  0.79230  0.18131  1.0000
  H   H54       1.0  0.14326  0.78108  0.18292  1.0000
  N   N21       1.0  0.21967  0.68215  0.32805  1.0000
  N   N22       1.0  0.37351  0.83496  0.31476  1.0000
  N   N23       1.0  0.28883  0.93602  0.31345  1.0000
  N   N24       1.0  0.12037  0.76851  0.32809  1.0000
  C   C109      1.0  0.86519  0.65676  0.31950  1.0000
  C   C110      1.0  0.84801  0.65694  0.32085  1.0000
  C   C111      1.0  0.83282  0.63784  0.32095  1.0000
  N   N25       1.0  0.84136  0.62684  0.32011  1.0000
  C   C112      1.0  0.86092  0.63754  0.31949  1.0000
  C   C113      1.0  0.87488  0.63145  0.31872  1.0000
  C   C114      1.0  0.87047  0.61189  0.31883  1.0000
  N   N26       1.0  0.85285  0.59582  0.31902  1.0000
  C   C115      1.0  0.85404  0.57954  0.31922  1.0000
  C   C116      1.0  0.87371  0.58555  0.31904  1.0000
  C   C117      1.0  0.88383  0.60547  0.31921  1.0000
  C   C118      1.0  0.83865  0.56012  0.31916  1.0000
  C   C119      1.0  0.81870  0.55442  0.31963  1.0000
  N   N27       1.0  0.81018  0.56543  0.32027  1.0000
  C   C120      1.0  0.79063  0.55472  0.32116  1.0000
  C   C121      1.0  0.78636  0.53550  0.32059  1.0000
  C   C122      1.0  0.80351  0.53532  0.32014  1.0000
  C   C123      1.0  0.77664  0.56077  0.32215  1.0000
  C   C124      1.0  0.78103  0.58030  0.32194  1.0000
  N   N28       1.0  0.79866  0.59638  0.32158  1.0000
  C   C125      1.0  0.79747  0.61265  0.32211  1.0000
  C   C126      1.0  0.77776  0.60658  0.32241  1.0000
  C   C127      1.0  0.76764  0.58666  0.32273  1.0000
  C   C128      1.0  0.81286  0.63210  0.32219  1.0000
  C   C129      1.0  0.80776  0.64684  0.32408  1.0000
  C   C130      1.0  0.79455  0.67395  0.32615  1.0000
  C   C131      1.0  0.80041  0.66922  0.24525  1.0000
  C   C132      1.0  0.80694  0.65581  0.24420  1.0000
  C   C133      1.0  0.75678  0.54616  0.32406  1.0000
  C   C134      1.0  0.71794  0.51512  0.32627  1.0000
  C   C135      1.0  0.72671  0.52472  0.24542  1.0000
  C   C136      1.0  0.74593  0.54005  0.24429  1.0000
  C   C137      1.0  0.84355  0.54526  0.31892  1.0000
  C   C138      1.0  0.84299  0.53566  0.23875  1.0000
  C   C139      1.0  0.84659  0.52014  0.23956  1.0000
  C   C140      1.0  0.85109  0.51404  0.31996  1.0000
  C   C141      1.0  0.89481  0.64594  0.31808  1.0000
  C   C142      1.0  0.90557  0.65081  0.23783  1.0000
  C   C143      1.0  0.93520  0.67288  0.31856  1.0000
  C   C144      1.0  0.92555  0.66404  0.23836  1.0000
  H   H55       1.0  0.93309  0.66698  0.17960  1.0000
  H   H56       1.0  0.89903  0.64439  0.17889  1.0000
  H   H57       1.0  0.87855  0.66887  0.31905  1.0000
  H   H58       1.0  0.84702  0.66920  0.32152  1.0000
  H   H59       1.0  0.83433  0.61299  0.32027  1.0000
  H   H60       1.0  0.81721  0.57928  0.32043  1.0000
  H   H61       1.0  0.89855  0.61372  0.31956  1.0000
  H   H62       1.0  0.87990  0.57704  0.31904  1.0000
  H   H63       1.0  0.83950  0.53961  0.17966  1.0000
  H   H64       1.0  0.84570  0.51317  0.18084  1.0000
  H   H65       1.0  0.80446  0.52304  0.32021  1.0000
  H   H66       1.0  0.77301  0.52337  0.32073  1.0000
  H   H67       1.0  0.77153  0.61505  0.32253  1.0000
  H   H68       1.0  0.75293  0.57837  0.32330  1.0000
  H   H69       1.0  0.75209  0.54642  0.18460  1.0000
  H   H70       1.0  0.71944  0.52019  0.18623  1.0000
  H   H71       1.0  0.81054  0.65221  0.18442  1.0000
  H   H72       1.0  0.79932  0.67494  0.18597  1.0000
  N   N29       1.0  0.70042  0.49960  0.33126  1.0000
  N   N30       1.0  0.85322  0.49858  0.31618  1.0000
  N   N31       1.0  0.95429  0.68430  0.31456  1.0000
  N   N32       1.0  0.78676  0.68525  0.33109  1.0000
  C   C145      1.0  0.39924  0.20902  0.32047  1.0000
  C   C146      1.0  0.39906  0.19166  0.32162  1.0000
  C   C147      1.0  0.41815  0.19557  0.32175  1.0000
  N   N33       1.0  0.42915  0.21511  0.32108  1.0000
  C   C148      1.0  0.41845  0.22397  0.32051  1.0000
  C   C149      1.0  0.42454  0.24401  0.31986  1.0000
  C   C150      1.0  0.44410  0.25916  0.32007  1.0000
  N   N34       1.0  0.46018  0.25762  0.32027  1.0000
  C   C151      1.0  0.47645  0.27509  0.32054  1.0000
  C   C152      1.0  0.47044  0.28875  0.32040  1.0000
  C   C153      1.0  0.45052  0.27894  0.32052  1.0000
  C   C154      1.0  0.49587  0.27912  0.32051  1.0000
  C   C155      1.0  0.50157  0.26487  0.32095  1.0000
  N   N35       1.0  0.49056  0.24534  0.32155  1.0000
  C   C156      1.0  0.50128  0.23650  0.32242  1.0000
  C   C157      1.0  0.52049  0.25145  0.32188  1.0000
  C   C158      1.0  0.52067  0.26878  0.32148  1.0000
  C   C159      1.0  0.49522  0.21646  0.32332  1.0000
  C   C160      1.0  0.47569  0.20132  0.32295  1.0000
  N   N36       1.0  0.45961  0.20286  0.32255  1.0000
  C   C161      1.0  0.44334  0.18540  0.32289  1.0000
  C   C162      1.0  0.44941  0.17177  0.32309  1.0000
  C   C163      1.0  0.46933  0.18157  0.32360  1.0000
  C   C164      1.0  0.42389  0.18135  0.32286  1.0000
  C   C165      1.0  0.40916  0.16151  0.32448  1.0000
  C   C166      1.0  0.38205  0.12118  0.32593  1.0000
  C   C167      1.0  0.38682  0.13183  0.24520  1.0000
  C   C168      1.0  0.40025  0.15177  0.24445  1.0000
  C   C169      1.0  0.50983  0.21121  0.32519  1.0000
  C   C170      1.0  0.54088  0.20342  0.32730  1.0000
  C   C171      1.0  0.53132  0.20259  0.24647  1.0000
  C   C172      1.0  0.51597  0.20646  0.24540  1.0000
  C   C173      1.0  0.51073  0.29889  0.32028  1.0000
  C   C174      1.0  0.52037  0.30792  0.24010  1.0000
  C   C175      1.0  0.53588  0.32704  0.24089  1.0000
  C   C176      1.0  0.54193  0.33765  0.32128  1.0000
  C   C177      1.0  0.41006  0.24946  0.31924  1.0000
  C   C178      1.0  0.40522  0.25535  0.23900  1.0000
  C   C179      1.0  0.38311  0.26290  0.31975  1.0000
  C   C180      1.0  0.39199  0.26210  0.23954  1.0000
  H   H73       1.0  0.38908  0.26669  0.18079  1.0000
  H   H74       1.0  0.41167  0.25522  0.18006  1.0000
  H   H75       1.0  0.38713  0.21027  0.31996  1.0000
  H   H76       1.0  0.38680  0.17842  0.32218  1.0000
  H   H77       1.0  0.44300  0.22193  0.32120  1.0000
  H   H78       1.0  0.47671  0.23852  0.32175  1.0000
  H   H79       1.0  0.44227  0.28541  0.32087  1.0000
  H   H80       1.0  0.47895  0.30344  0.32045  1.0000
  H   H81       1.0  0.51646  0.30048  0.18102  1.0000
  H   H82       1.0  0.54288  0.33312  0.18218  1.0000
  H   H83       1.0  0.53296  0.28201  0.32157  1.0000
  H   H84       1.0  0.53263  0.25024  0.32201  1.0000
  H   H85       1.0  0.44095  0.15707  0.32307  1.0000
  H   H86       1.0  0.47762  0.17514  0.32413  1.0000
  H   H87       1.0  0.50963  0.20626  0.18572  1.0000
  H   H88       1.0  0.53585  0.19982  0.18728  1.0000
  H   H89       1.0  0.40387  0.15901  0.18480  1.0000
  H   H90       1.0  0.38115  0.12506  0.18581  1.0000
  N   N37       1.0  0.55639  0.20141  0.33222  1.0000
  N   N38       1.0  0.55740  0.35524  0.31748  1.0000
  N   N39       1.0  0.37169  0.27057  0.31577  1.0000
  N   N40       1.0  0.37073  0.10209  0.33058  1.0000
  C   C181      1.0  0.84698  0.19081  0.31916  1.0000
  C   C182      1.0  0.86434  0.20799  0.32026  1.0000
  C   C183      1.0  0.86043  0.22318  0.32011  1.0000
  N   N41       1.0  0.84089  0.21463  0.31934  1.0000
  C   C184      1.0  0.83204  0.19508  0.31898  1.0000
  C   C185      1.0  0.81199  0.18111  0.31833  1.0000
  C   C186      1.0  0.79684  0.18553  0.31842  1.0000
  N   N42       1.0  0.79838  0.20314  0.31855  1.0000
  C   C187      1.0  0.78091  0.20195  0.31879  1.0000
  C   C188      1.0  0.76725  0.18228  0.31869  1.0000
  C   C189      1.0  0.77706  0.17216  0.31888  1.0000
  C   C190      1.0  0.77688  0.21734  0.31875  1.0000
  C   C191      1.0  0.79113  0.23729  0.31908  1.0000
  N   N43       1.0  0.81066  0.24581  0.31944  1.0000
  C   C192      1.0  0.81949  0.26536  0.32030  1.0000
  C   C193      1.0  0.80455  0.26963  0.32001  1.0000
  C   C194      1.0  0.78721  0.25248  0.31975  1.0000
  C   C195      1.0  0.83953  0.27935  0.32099  1.0000
  C   C196      1.0  0.85467  0.27496  0.32063  1.0000
  N   N44       1.0  0.85313  0.25734  0.32045  1.0000
  C   C197      1.0  0.87060  0.25853  0.32081  1.0000
  C   C198      1.0  0.88423  0.27823  0.32080  1.0000
  C   C199      1.0  0.87442  0.28835  0.32114  1.0000
  C   C200      1.0  0.87465  0.24314  0.32104  1.0000
  C   C201      1.0  0.89448  0.24824  0.32291  1.0000
  C   C202      1.0  0.93482  0.26147  0.32486  1.0000
  C   C203      1.0  0.92424  0.25558  0.24403  1.0000
  C   C204      1.0  0.90430  0.24905  0.24303  1.0000
  C   C205      1.0  0.84478  0.29921  0.32285  1.0000
  C   C206      1.0  0.85262  0.33806  0.32506  1.0000
  C   C207      1.0  0.85339  0.32930  0.24414  1.0000
  C   C208      1.0  0.84951  0.31008  0.24302  1.0000
  C   C209      1.0  0.75711  0.21243  0.31876  1.0000
  C   C210      1.0  0.74808  0.21303  0.23871  1.0000
  C   C211      1.0  0.72895  0.20943  0.23977  1.0000
  C   C212      1.0  0.71835  0.20488  0.32029  1.0000
  C   C213      1.0  0.80654  0.16119  0.31794  1.0000
  C   C214      1.0  0.80072  0.15043  0.23779  1.0000
  C   C215      1.0  0.79313  0.12081  0.31889  1.0000
  C   C216      1.0  0.79396  0.13045  0.23856  1.0000
  H   H91       1.0  0.78941  0.12292  0.17987  1.0000
  H   H92       1.0  0.80086  0.15697  0.17877  1.0000
  H   H93       1.0  0.84574  0.17745  0.31885  1.0000
  H   H94       1.0  0.87759  0.20898  0.32093  1.0000
  H   H95       1.0  0.83407  0.22167  0.31921  1.0000
  H   H96       1.0  0.81748  0.23878  0.31934  1.0000
  H   H97       1.0  0.77059  0.15745  0.31930  1.0000
  H   H98       1.0  0.75256  0.17609  0.31877  1.0000
  H   H99       1.0  0.75551  0.21656  0.17955  1.0000
  H   H100      1.0  0.72288  0.21036  0.18116  1.0000
  H   H101      1.0  0.77398  0.25153  0.32004  1.0000
  H   H102      1.0  0.80575  0.28297  0.32019  1.0000
  H   H103      1.0  0.89893  0.28447  0.32072  1.0000
  H   H104      1.0  0.88085  0.30307  0.32150  1.0000
  H   H105      1.0  0.84969  0.30392  0.18331  1.0000
  H   H106      1.0  0.85615  0.33659  0.18494  1.0000
  H   H107      1.0  0.89711  0.24541  0.18331  1.0000
  H   H108      1.0  0.93107  0.25663  0.18476  1.0000
  N   N45       1.0  0.85461  0.35558  0.33006  1.0000
  N   N46       1.0  0.70076  0.20276  0.31676  1.0000
  N   N47       1.0  0.78545  0.10171  0.31513  1.0000
  N   N48       1.0  0.95390  0.26924  0.32975  1.0000
  C   C217      1.0  0.22278  0.59247  0.25834  1.0000
  C   C218      1.0  0.22187  0.57449  0.27216  1.0000
  H   H109      1.0  0.22804  0.56985  0.22563  1.0000
  C   C219      1.0  0.21419  0.61639  0.32032  1.0000
  C   C220      1.0  0.21193  0.65032  0.29542  1.0000
  C   C221      1.0  0.20411  0.63494  0.23348  1.0000
  N   N49       1.0  0.20551  0.61897  0.24786  1.0000
  H   H110      1.0  0.19753  0.63564  0.17615  1.0000
  N   N50       1.0  0.23205  0.60306  0.18470  1.0000
  H   H111      1.0  0.23789  0.59846  0.14125  1.0000
  H   H112      1.0  0.23392  0.61589  0.17489  1.0000
  C   C222      1.0  0.21131  0.66713  0.27770  1.0000
  H   H113      1.0  0.20452  0.66769  0.22313  1.0000
  C   C223      1.0  0.46357  0.63091  0.25956  1.0000
  C   C224      1.0  0.48154  0.64797  0.27337  1.0000
  H   H114      1.0  0.48621  0.65878  0.22682  1.0000
  C   C225      1.0  0.40569  0.56220  0.29665  1.0000
  C   C226      1.0  0.42109  0.56977  0.23464  1.0000
  N   N51       1.0  0.43706  0.58714  0.24902  1.0000
  H   H115      1.0  0.42043  0.56251  0.17730  1.0000
  N   N52       1.0  0.45302  0.62958  0.18587  1.0000
  H   H116      1.0  0.45763  0.64003  0.14250  1.0000
  H   H117      1.0  0.44019  0.61865  0.17615  1.0000
  C   C227      1.0  0.38890  0.54477  0.27895  1.0000
  H   H118      1.0  0.38837  0.53741  0.22441  1.0000
  C   C228      1.0  0.42515  0.83325  0.25961  1.0000
  C   C229      1.0  0.40807  0.83414  0.27321  1.0000
  H   H119      1.0  0.39731  0.82801  0.22653  1.0000
  C   C230      1.0  0.49383  0.84411  0.29752  1.0000
  C   C231      1.0  0.48633  0.85196  0.23548  1.0000
  N   N53       1.0  0.46894  0.85054  0.24965  1.0000
  H   H120      1.0  0.49366  0.85859  0.17825  1.0000
  N   N54       1.0  0.42657  0.82404  0.18599  1.0000
  H   H121      1.0  0.41617  0.81823  0.14241  1.0000
  H   H122      1.0  0.43753  0.82218  0.17632  1.0000
  C   C232      1.0  0.51129  0.84476  0.28003  1.0000
  H   H123      1.0  0.51871  0.85163  0.22564  1.0000
  C   C233      1.0  0.85152  0.44527  0.26029  1.0000
  C   C234      1.0  0.85244  0.46325  0.27407  1.0000
  H   H124      1.0  0.84631  0.46791  0.22751  1.0000
  C   C235      1.0  0.86236  0.38741  0.29743  1.0000
  C   C236      1.0  0.87021  0.40281  0.23547  1.0000
  N   N55       1.0  0.86880  0.41877  0.24983  1.0000
  H   H125      1.0  0.87681  0.40213  0.17811  1.0000
  N   N56       1.0  0.84233  0.43471  0.18659  1.0000
  H   H126      1.0  0.83645  0.43930  0.14334  1.0000
  H   H127      1.0  0.84038  0.42185  0.17706  1.0000
  C   C237      1.0  0.86299  0.37061  0.27969  1.0000
  H   H128      1.0  0.86980  0.37006  0.22507  1.0000
  C   C238      1.0  0.61074  0.40684  0.26160  1.0000
  C   C239      1.0  0.59277  0.38977  0.27542  1.0000
  H   H129      1.0  0.58813  0.37897  0.22889  1.0000
  C   C240      1.0  0.66859  0.47553  0.29869  1.0000
  C   C241      1.0  0.65322  0.46799  0.23674  1.0000
  N   N57       1.0  0.63725  0.45062  0.25111  1.0000
  H   H130      1.0  0.65392  0.47528  0.17941  1.0000
  N   N58       1.0  0.62136  0.40819  0.18796  1.0000
  H   H131      1.0  0.61676  0.39776  0.14452  1.0000
  H   H132      1.0  0.63418  0.41914  0.17816  1.0000
  C   C242      1.0  0.68540  0.49297  0.28097  1.0000
  H   H133      1.0  0.68596  0.50034  0.22641  1.0000
  C   C243      1.0  0.64915  0.20448  0.26156  1.0000
  C   C244      1.0  0.66622  0.20357  0.27514  1.0000
  H   H134      1.0  0.67701  0.20971  0.22844  1.0000
  C   C245      1.0  0.58045  0.19362  0.29948  1.0000
  C   C246      1.0  0.58800  0.18580  0.23739  1.0000
  N   N59       1.0  0.60538  0.18721  0.25157  1.0000
  H   H135      1.0  0.58072  0.17921  0.18012  1.0000
  N   N60       1.0  0.64778  0.21370  0.18789  1.0000
  H   H136      1.0  0.65822  0.21955  0.14438  1.0000
  H   H137      1.0  0.63685  0.21560  0.17834  1.0000
  C   C247      1.0  0.56301  0.19298  0.28197  1.0000
  H   H138      1.0  0.55563  0.18613  0.22755  1.0000
  C   C248      1.0  0.05935  0.32458  0.25900  1.0000
  C   C249      1.0  0.07959  0.33393  0.27268  1.0000
  H   H139      1.0  0.08851  0.34372  0.22608  1.0000
  C   C250      1.0  0.98622  0.27873  0.29670  1.0000
  C   C251      1.0  0.99946  0.27855  0.23464  1.0000
  N   N61       1.0  0.01872  0.28936  0.24887  1.0000
  H   H140      1.0  0.99485  0.27055  0.17732  1.0000
  N   N62       1.0  0.05246  0.32913  0.18538  1.0000
  H   H141      1.0  0.06115  0.33852  0.14186  1.0000
  H   H142      1.0  0.03874  0.32388  0.17565  1.0000
  C   C252      1.0  0.96645  0.26836  0.27905  1.0000
  H   H143      1.0  0.96190  0.26031  0.22410  1.0000
  C   C253      1.0  0.73143  0.73535  0.26029  1.0000
  C   C254      1.0  0.72210  0.74626  0.27390  1.0000
  H   H144      1.0  0.71234  0.74539  0.22726  1.0000
  C   C255      1.0  0.77727  0.70807  0.29803  1.0000
  C   C256      1.0  0.77747  0.72148  0.23595  1.0000
  N   N63       1.0  0.76665  0.72993  0.25017  1.0000
  H   H145      1.0  0.78548  0.72485  0.17857  1.0000
  N   N64       1.0  0.72695  0.72393  0.18660  1.0000
  H   H146      1.0  0.71753  0.72318  0.14327  1.0000
  H   H147      1.0  0.73212  0.71538  0.17717  1.0000
  C   C257      1.0  0.78764  0.69866  0.28034  1.0000
  H   H148      1.0  0.79570  0.70215  0.22533  1.0000
  C   C258      1.0  0.32066  0.99670  0.25849  1.0000
  C   C259      1.0  0.30975  0.97645  0.27192  1.0000
  H   H149      1.0  0.31065  0.96758  0.22523  1.0000
  C   C260      1.0  0.32953  0.02925  0.32116  1.0000
  C   C261      1.0  0.34794  0.06980  0.29705  1.0000
  C   C262      1.0  0.33458  0.05663  0.23480  1.0000
  N   N65       1.0  0.32610  0.03736  0.24879  1.0000
  H   H150      1.0  0.33124  0.06130  0.17751  1.0000
  N   N66       1.0  0.33216  0.00366  0.18496  1.0000
  H   H151      1.0  0.33289  0.99502  0.14134  1.0000
  H   H152      1.0  0.34065  0.01739  0.17539  1.0000
  C   C263      1.0  0.35736  0.08960  0.27965  1.0000
  H   H153      1.0  0.35393  0.09421  0.22469  1.0000
  C   C264      1.0  0.02707  0.72638  0.32468  1.0000
  C   C265      1.0  0.01492  0.71313  0.25827  1.0000
  C   C266      1.0  0.99468  0.70380  0.27217  1.0000
  H   H154      1.0  0.98577  0.69401  0.22568  1.0000
  C   C267      1.0  0.04753  0.73683  0.32017  1.0000
  C   C268      1.0  0.08805  0.75898  0.29518  1.0000
  C   C269      1.0  0.07483  0.75914  0.23317  1.0000
  N   N67       1.0  0.05557  0.74834  0.24760  1.0000
  H   H155      1.0  0.07945  0.76713  0.17577  1.0000
  N   N68       1.0  0.02181  0.70858  0.18456  1.0000
  H   H156      1.0  0.01313  0.69920  0.14115  1.0000
  H   H157      1.0  0.03554  0.71382  0.17467  1.0000
  C   C270      1.0  0.10784  0.76936  0.27738  1.0000
  H   H158      1.0  0.11240  0.77740  0.22233  1.0000
  C   C271      1.0  0.34289  0.30237  0.25953  1.0000
  C   C272      1.0  0.35222  0.29148  0.27343  1.0000
  H   H159      1.0  0.36204  0.29236  0.22695  1.0000
  C   C273      1.0  0.31917  0.31129  0.32145  1.0000
  C   C274      1.0  0.29705  0.32968  0.29646  1.0000
  C   C275      1.0  0.29690  0.31628  0.23450  1.0000
  N   N69       1.0  0.30768  0.30781  0.24891  1.0000
  H   H160      1.0  0.28892  0.31291  0.17711  1.0000
  N   N70       1.0  0.34749  0.31383  0.18587  1.0000
  H   H161      1.0  0.35690  0.31453  0.14247  1.0000
  H   H162      1.0  0.34225  0.32231  0.17599  1.0000
  C   C276      1.0  0.28669  0.33910  0.27864  1.0000
  H   H163      1.0  0.27869  0.33564  0.22356  1.0000
  C   C277      1.0  0.75364  0.04107  0.25963  1.0000
  C   C278      1.0  0.76455  0.06131  0.27326  1.0000
  H   H164      1.0  0.76370  0.07022  0.22662  1.0000
  C   C279      1.0  0.72635  0.96795  0.29734  1.0000
  C   C280      1.0  0.73977  0.98118  0.23527  1.0000
  N   N71       1.0  0.74822  0.00044  0.24949  1.0000
  H   H165      1.0  0.74315  0.97656  0.17788  1.0000
  N   N72       1.0  0.74224  0.03417  0.18595  1.0000
  H   H166      1.0  0.74149  0.04286  0.14263  1.0000
  H   H167      1.0  0.73368  0.02045  0.17651  1.0000
  C   C281      1.0  0.71694  0.94817  0.27964  1.0000
  H   H168      1.0  0.72042  0.94361  0.22461  1.0000
  C   C282      1.0  0.27215  0.38606  0.40326  1.0000
  C   C283      1.0  0.27881  0.37276  0.40401  1.0000
  C   C284      1.0  0.32620  0.50100  0.40292  1.0000
  C   C285      1.0  0.34536  0.51644  0.40371  1.0000
  C   C286      1.0  0.22248  0.51396  0.39824  1.0000
  C   C287      1.0  0.22623  0.49854  0.39779  1.0000
  C   C288      1.0  0.16988  0.38302  0.39777  1.0000
  C   C289      1.0  0.14992  0.36968  0.39827  1.0000
  H   H169      1.0  0.14329  0.36405  0.45807  1.0000
  H   H170      1.0  0.17727  0.38663  0.45693  1.0000
  H   H171      1.0  0.22606  0.49203  0.45697  1.0000
  H   H172      1.0  0.21982  0.51838  0.45801  1.0000
  H   H173      1.0  0.31848  0.49704  0.46132  1.0000
  H   H174      1.0  0.35118  0.52333  0.46285  1.0000
  H   H175      1.0  0.28331  0.36992  0.46319  1.0000
  H   H176      1.0  0.27201  0.39263  0.46174  1.0000
  C   C290      1.0  0.66990  0.88671  0.40447  1.0000
  C   C291      1.0  0.68319  0.90667  0.40514  1.0000
  C   C292      1.0  0.55498  0.82584  0.40418  1.0000
  C   C293      1.0  0.53955  0.82956  0.40491  1.0000
  C   C294      1.0  0.54202  0.70910  0.39951  1.0000
  C   C295      1.0  0.55745  0.72827  0.39907  1.0000
  C   C296      1.0  0.67293  0.78743  0.39908  1.0000
  C   C297      1.0  0.68627  0.78082  0.39955  1.0000
  H   H177      1.0  0.69186  0.77980  0.45935  1.0000
  H   H178      1.0  0.66928  0.79120  0.45827  1.0000
  H   H179      1.0  0.56394  0.73460  0.45824  1.0000
  H   H180      1.0  0.53758  0.70202  0.45926  1.0000
  H   H181      1.0  0.55890  0.82208  0.46259  1.0000
  H   H182      1.0  0.53262  0.82849  0.46403  1.0000
  H   H183      1.0  0.68602  0.91402  0.46429  1.0000
  H   H184      1.0  0.66329  0.88000  0.46295  1.0000
  C   C298      1.0  0.16927  0.78382  0.40190  1.0000
  C   C299      1.0  0.14932  0.77717  0.40267  1.0000
  C   C300      1.0  0.23010  0.72975  0.40181  1.0000
  C   C301      1.0  0.22636  0.71058  0.40260  1.0000
  C   C302      1.0  0.34680  0.83348  0.39832  1.0000
  C   C303      1.0  0.32762  0.82972  0.39758  1.0000
  C   C304      1.0  0.26849  0.88608  0.39662  1.0000
  C   C305      1.0  0.27512  0.90604  0.39717  1.0000
  H   H185      1.0  0.27606  0.91262  0.45695  1.0000
  H   H186      1.0  0.26467  0.87865  0.45578  1.0000
  H   H187      1.0  0.32122  0.82986  0.45665  1.0000
  H   H188      1.0  0.35379  0.83607  0.45821  1.0000
  H   H189      1.0  0.23379  0.73742  0.46024  1.0000
  H   H190      1.0  0.22738  0.70472  0.46175  1.0000
  H   H191      1.0  0.14195  0.77265  0.46186  1.0000
  H   H192      1.0  0.17596  0.78393  0.46037  1.0000
  C   C306      1.0  0.80209  0.65167  0.40505  1.0000
  C   C307      1.0  0.79544  0.66497  0.40578  1.0000
  C   C308      1.0  0.74801  0.53671  0.40497  1.0000
  C   C309      1.0  0.72885  0.52127  0.40576  1.0000
  C   C310      1.0  0.85176  0.52376  0.40011  1.0000
  C   C311      1.0  0.84801  0.53918  0.39963  1.0000
  C   C312      1.0  0.90440  0.65472  0.39858  1.0000
  C   C313      1.0  0.92435  0.66806  0.39878  1.0000
  H   H193      1.0  0.93097  0.67372  0.45846  1.0000
  H   H194      1.0  0.89699  0.65114  0.45784  1.0000
  H   H195      1.0  0.84814  0.54568  0.45879  1.0000
  H   H196      1.0  0.85436  0.51932  0.45989  1.0000
  H   H197      1.0  0.75569  0.54066  0.46338  1.0000
  H   H198      1.0  0.72299  0.51436  0.46490  1.0000
  H   H199      1.0  0.79092  0.66781  0.46497  1.0000
  H   H200      1.0  0.80220  0.64509  0.46354  1.0000
  C   C314      1.0  0.40426  0.15095  0.40527  1.0000
  C   C315      1.0  0.39096  0.13099  0.40570  1.0000
  C   C316      1.0  0.51925  0.21189  0.40607  1.0000
  C   C317      1.0  0.53469  0.20817  0.40681  1.0000
  C   C318      1.0  0.53220  0.32859  0.40146  1.0000
  C   C319      1.0  0.51678  0.30941  0.40098  1.0000
  C   C320      1.0  0.40122  0.25025  0.39973  1.0000
  C   C321      1.0  0.38788  0.25687  0.39995  1.0000
  H   H201      1.0  0.38221  0.25784  0.45964  1.0000
  H   H202      1.0  0.40478  0.24644  0.45900  1.0000
  H   H203      1.0  0.51025  0.30306  0.46015  1.0000
  H   H204      1.0  0.53660  0.33564  0.46122  1.0000
  H   H205      1.0  0.51528  0.21563  0.46448  1.0000
  H   H206      1.0  0.54158  0.20923  0.46593  1.0000
  H   H207      1.0  0.38808  0.12358  0.46477  1.0000
  H   H208      1.0  0.41080  0.15760  0.46387  1.0000
  C   C322      1.0  0.90497  0.25393  0.40381  1.0000
  C   C323      1.0  0.92493  0.26060  0.40448  1.0000
  C   C324      1.0  0.84413  0.30796  0.40380  1.0000
  C   C325      1.0  0.84786  0.32713  0.40458  1.0000
  C   C326      1.0  0.72741  0.20420  0.40031  1.0000
  C   C327      1.0  0.74658  0.20795  0.39958  1.0000
  C   C328      1.0  0.80571  0.15161  0.39857  1.0000
  C   C329      1.0  0.79909  0.13165  0.39901  1.0000
  H   H209      1.0  0.79808  0.12503  0.45878  1.0000
  H   H210      1.0  0.80947  0.15900  0.45777  1.0000
  H   H211      1.0  0.75294  0.20778  0.45865  1.0000
  H   H212      1.0  0.72036  0.20156  0.46017  1.0000
  H   H213      1.0  0.84039  0.30027  0.46223  1.0000
  H   H214      1.0  0.84681  0.33297  0.46374  1.0000
  H   H215      1.0  0.93227  0.26512  0.46362  1.0000
  H   H216      1.0  0.89826  0.25383  0.46229  1.0000
  C   C330      1.0  0.21318  0.56307  0.34916  1.0000
  C   C331      1.0  0.20505  0.57028  0.41140  1.0000
  N   N73       1.0  0.20597  0.58744  0.39725  1.0000
  C   C332      1.0  0.21448  0.59884  0.32482  1.0000
  C   C333      1.0  0.22216  0.63110  0.38663  1.0000
  C   C334      1.0  0.22076  0.64789  0.37255  1.0000
  H   H217      1.0  0.22670  0.65874  0.41889  1.0000
  H   H218      1.0  0.19855  0.56288  0.46865  1.0000
  N   N74       1.0  0.23156  0.63007  0.46031  1.0000
  H   H219      1.0  0.23375  0.61933  0.47033  1.0000
  H   H220      1.0  0.23715  0.64054  0.50365  1.0000
  C   C335      1.0  0.21292  0.54580  0.36633  1.0000
  H   H221      1.0  0.20647  0.53849  0.42159  1.0000
  C   C336      1.0  0.49292  0.65071  0.35041  1.0000
  C   C337      1.0  0.48567  0.63537  0.41266  1.0000
  N   N75       1.0  0.46852  0.61913  0.39850  1.0000
  C   C338      1.0  0.45717  0.61624  0.32603  1.0000
  C   C339      1.0  0.43961  0.59840  0.32152  1.0000
  C   C340      1.0  0.42488  0.59165  0.38788  1.0000
  C   C341      1.0  0.40810  0.57346  0.37381  1.0000
  H   H222      1.0  0.39724  0.56854  0.42023  1.0000
  H   H223      1.0  0.49304  0.63627  0.46992  1.0000
  N   N76       1.0  0.42589  0.60206  0.46165  1.0000
  H   H224      1.0  0.43658  0.61503  0.47140  1.0000
  H   H225      1.0  0.41537  0.59722  0.50479  1.0000
  C   C342      1.0  0.51019  0.66772  0.36755  1.0000
  H   H226      1.0  0.51748  0.66857  0.42277  1.0000
  C   C343      1.0  0.40525  0.84277  0.35015  1.0000
  C   C344      1.0  0.42052  0.85086  0.41259  1.0000
  N   N77       1.0  0.43678  0.84995  0.39866  1.0000
  C   C345      1.0  0.43975  0.84150  0.32627  1.0000
  C   C346      1.0  0.45760  0.84180  0.32198  1.0000
  C   C347      1.0  0.46428  0.83380  0.38840  1.0000
  C   C348      1.0  0.48249  0.83522  0.37451  1.0000
  H   H227      1.0  0.48736  0.82926  0.42097  1.0000
  H   H228      1.0  0.41956  0.85732  0.46983  1.0000
  N   N78       1.0  0.45379  0.82435  0.46199  1.0000
  H   H229      1.0  0.44084  0.82215  0.47185  1.0000
  H   H230      1.0  0.45861  0.81873  0.50538  1.0000
  C   C349      1.0  0.38821  0.84302  0.36709  1.0000
  H   H231      1.0  0.38729  0.84942  0.42236  1.0000
  C   C350      1.0  0.86106  0.47464  0.35111  1.0000
  C   C351      1.0  0.86913  0.46741  0.41341  1.0000
  N   N79       1.0  0.86822  0.45025  0.39927  1.0000
  C   C352      1.0  0.85977  0.43888  0.32681  1.0000
  C   C353      1.0  0.86007  0.42133  0.32231  1.0000
  C   C354      1.0  0.85207  0.40660  0.38864  1.0000
  C   C355      1.0  0.85348  0.38982  0.37455  1.0000
  H   H232      1.0  0.84751  0.37896  0.42091  1.0000
  H   H233      1.0  0.87558  0.47478  0.47069  1.0000
  N   N80       1.0  0.84262  0.40761  0.46233  1.0000
  H   H234      1.0  0.84042  0.41834  0.47233  1.0000
  H   H235      1.0  0.83700  0.39713  0.50567  1.0000
  C   C356      1.0  0.86130  0.49191  0.36828  1.0000
  H   H236      1.0  0.86771  0.49920  0.42356  1.0000
  C   C357      1.0  0.58133  0.38701  0.35240  1.0000
  C   C358      1.0  0.58852  0.40233  0.41464  1.0000
  N   N81       1.0  0.60569  0.41858  0.40051  1.0000
  C   C359      1.0  0.61710  0.42148  0.32808  1.0000
  C   C360      1.0  0.63466  0.43933  0.32358  1.0000
  C   C361      1.0  0.64935  0.44605  0.38990  1.0000
  C   C362      1.0  0.66614  0.46424  0.37582  1.0000
  H   H237      1.0  0.67698  0.46913  0.42217  1.0000
  H   H238      1.0  0.58111  0.40141  0.47190  1.0000
  N   N82       1.0  0.64831  0.43560  0.46359  1.0000
  H   H239      1.0  0.63756  0.42266  0.47359  1.0000
  H   H240      1.0  0.65876  0.44046  0.50691  1.0000
  C   C363      1.0  0.56405  0.36999  0.36957  1.0000
  H   H241      1.0  0.55673  0.36912  0.42482  1.0000
  C   C364      1.0  0.66900  0.19494  0.35212  1.0000
  C   C365      1.0  0.65369  0.18684  0.41459  1.0000
  N   N83       1.0  0.63744  0.18775  0.40065  1.0000
  C   C366      1.0  0.63451  0.19621  0.32823  1.0000
  C   C367      1.0  0.61666  0.19591  0.32395  1.0000
  C   C368      1.0  0.60993  0.20388  0.39038  1.0000
  C   C369      1.0  0.59173  0.20246  0.37653  1.0000
  H   H242      1.0  0.58682  0.20839  0.42301  1.0000
  H   H243      1.0  0.65461  0.18036  0.47183  1.0000
  N   N84       1.0  0.62037  0.21328  0.46406  1.0000
  H   H244      1.0  0.63334  0.21556  0.47365  1.0000
  H   H245      1.0  0.61553  0.21895  0.50725  1.0000
  C   C370      1.0  0.68601  0.19467  0.36903  1.0000
  H   H246      1.0  0.68690  0.18824  0.42426  1.0000
  C   C371      1.0  0.08778  0.33054  0.34962  1.0000
  C   C372      1.0  0.07476  0.31701  0.41196  1.0000
  N   N85       1.0  0.05546  0.30815  0.39797  1.0000
  C   C373      1.0  0.04720  0.31134  0.32559  1.0000
  C   C374      1.0  0.02674  0.30088  0.32130  1.0000
  C   C375      1.0  0.01437  0.30161  0.38774  1.0000
  C   C376      1.0  0.99417  0.29034  0.37378  1.0000
  H   H247      1.0  0.98508  0.29096  0.42024  1.0000
  H   H248      1.0  0.07955  0.31381  0.46922  1.0000
  N   N86       1.0  0.02100  0.31306  0.46144  1.0000
  H   H249      1.0  0.03467  0.32177  0.47138  1.0000
  H   H250      1.0  0.01216  0.31350  0.50486  1.0000
  C   C377      1.0  0.10758  0.34026  0.36674  1.0000
  H   H251      1.0  0.11229  0.33712  0.42222  1.0000
  C   C378      1.0  0.72544  0.75782  0.35089  1.0000
  C   C379      1.0  0.73892  0.75832  0.41329  1.0000
  N   N87       1.0  0.74778  0.74788  0.39933  1.0000
  C   C380      1.0  0.74463  0.73642  0.32692  1.0000
  C   C381      1.0  0.75509  0.72643  0.32263  1.0000
  C   C382      1.0  0.75434  0.71333  0.38908  1.0000
  C   C383      1.0  0.76563  0.70441  0.37513  1.0000
  H   H252      1.0  0.76498  0.69470  0.42156  1.0000
  H   H253      1.0  0.74209  0.76631  0.47057  1.0000
  N   N88       1.0  0.74286  0.70852  0.46279  1.0000
  H   H254      1.0  0.73414  0.71347  0.47272  1.0000
  H   H255      1.0  0.74241  0.69924  0.50622  1.0000
  C   C384      1.0  0.71572  0.76792  0.36796  1.0000
  H   H256      1.0  0.71885  0.77578  0.42339  1.0000
  C   C385      1.0  0.29810  0.96819  0.34876  1.0000
  C   C386      1.0  0.29755  0.98115  0.41123  1.0000
  N   N89       1.0  0.30800  0.00046  0.39747  1.0000
  C   C387      1.0  0.31953  0.00879  0.32520  1.0000
  C   C388      1.0  0.34258  0.04156  0.38776  1.0000
  C   C389      1.0  0.35153  0.06177  0.37408  1.0000
  H   H257      1.0  0.36120  0.07081  0.42063  1.0000
  H   H258      1.0  0.28950  0.97631  0.46842  1.0000
  N   N90       1.0  0.34733  0.03484  0.46140  1.0000
  H   H259      1.0  0.34236  0.02116  0.47116  1.0000
  H   H260      1.0  0.35658  0.04364  0.50495  1.0000
  C   C390      1.0  0.28799  0.94837  0.36565  1.0000
  H   H261      1.0  0.28005  0.94361  0.42093  1.0000
  C   C391      1.0  0.98649  0.70719  0.34922  1.0000
  C   C392      1.0  0.99951  0.72072  0.41138  1.0000
  N   N91       1.0  0.01880  0.72958  0.39715  1.0000
  C   C393      1.0  0.05989  0.73611  0.38653  1.0000
  C   C394      1.0  0.08010  0.74739  0.37241  1.0000
  H   H262      1.0  0.08917  0.74678  0.41883  1.0000
  H   H263      1.0  0.99471  0.72394  0.46867  1.0000
  N   N92       1.0  0.05324  0.72469  0.46039  1.0000
  H   H264      1.0  0.03957  0.71591  0.47020  1.0000
  H   H265      1.0  0.06208  0.72419  0.50354  1.0000
  C   C395      1.0  0.96668  0.69748  0.36655  1.0000
  H   H266      1.0  0.96197  0.70066  0.42198  1.0000
  C   C396      1.0  0.34878  0.27988  0.35044  1.0000
  C   C397      1.0  0.33521  0.27935  0.41258  1.0000
  N   N93       1.0  0.32637  0.28980  0.39839  1.0000
  C   C398      1.0  0.32961  0.30128  0.32594  1.0000
  C   C399      1.0  0.31987  0.32438  0.38780  1.0000
  C   C400      1.0  0.30862  0.33333  0.37365  1.0000
  H   H267      1.0  0.30922  0.34302  0.42004  1.0000
  H   H268      1.0  0.33197  0.27135  0.46987  1.0000
  N   N94       1.0  0.33128  0.32917  0.46159  1.0000
  H   H269      1.0  0.33997  0.32420  0.47167  1.0000
  H   H270      1.0  0.33170  0.33845  0.50495  1.0000
  C   C401      1.0  0.35849  0.26978  0.36778  1.0000
  H   H271      1.0  0.35529  0.26191  0.42322  1.0000
  C   C402      1.0  0.77611  0.06951  0.35025  1.0000
  C   C403      1.0  0.77659  0.05650  0.41263  1.0000
  N   N95       1.0  0.76615  0.03720  0.39866  1.0000
  C   C404      1.0  0.75471  0.02893  0.32625  1.0000
  C   C405      1.0  0.74471  0.00847  0.32196  1.0000
  C   C406      1.0  0.73160  0.99611  0.38841  1.0000
  C   C407      1.0  0.72268  0.97590  0.37446  1.0000
  H   H272      1.0  0.71296  0.96682  0.42089  1.0000
  H   H273      1.0  0.78457  0.06130  0.46991  1.0000
  N   N96       1.0  0.72678  0.00275  0.46212  1.0000
  H   H274      1.0  0.73173  0.01642  0.47205  1.0000
  H   H275      1.0  0.71749  0.99391  0.50555  1.0000
  C   C408      1.0  0.78621  0.08932  0.36731  1.0000
  H   H276      1.0  0.79406  0.09403  0.42274  1.0000
