data_image0
_chemical_formula_structural       NCHNCHNCHNCHC2NCNO2C2NCNO2C2NCNO2C2NCNO2C2NCNO2C2NCNO2C2NCNO2C2NCNO2NCHNCHNCHNCHC2NCNO2C2NCNO2C2NCNO2C2NCNO2NCHNCHNCHNCHC2NCNO2C2NCNO2NCHNCHNCHNCHC2NCNO2C2NCNO2C2NCNO2C2NCNO2C2NCNO2C2NCNO2C2NCNO2C2NCNO2NCHNCHNCHNCHCNCNCNCNCNCNCNCNCNCNCNCNCNCNCNCNCNCNCNCNCNCNCNCNCNCNCNCNCNCNCNCNCNCNCNCNCNCNCNCNCNCNCNCNCNCNCNCNCNCNCNCNCNCNCNCNCNCNCNCNCNCNCNCNCNCNCNCNCNCNCNCNCNCNCNCNCNCNCNCNCNCNCNCNC2NCNO2C2NCNO2C2NCNO2C2NCNO2NCHNCHNCHNCHNCHNCHNCHNCHC2NCNO2C2NCNO2C2NCNO2C2NCNO2NCHNCHNCHNCHC2NCNO2C2NCNO2C2NCNO2C2NCNO2NCHNCHC2NCNO2C2NCNO2C2NCNO2C2NCNO2NCHNCHNCHNCHNCHNCHNCHNCHC2NCNO2C2NCNO2C2NCNO2C2NCNO2
_chemical_formula_sum              "N210 C252 H42 O84"
_cell_length_a       51.1895
_cell_length_b       51.1895
_cell_length_c       14.8269
_cell_angle_alpha    90
_cell_angle_beta     90
_cell_angle_gamma    90

_space_group_name_H-M_alt    "P 1"
_space_group_IT_number       1

loop_
  _space_group_symop_operation_xyz
  'x, y, z'

loop_
  _atom_site_type_symbol
  _atom_site_label
  _atom_site_symmetry_multiplicity
  _atom_site_fract_x
  _atom_site_fract_y
  _atom_site_fract_z
  _atom_site_occupancy
  N   N1        1.0  0.11633  0.14605  0.34542  1.0000
  C   C1        1.0  0.13317  0.16634  0.34653  1.0000
  H   H1        1.0  0.12645  0.18468  0.33275  1.0000
  N   N2        1.0  0.89504  0.86602  0.34597  1.0000
  C   C2        1.0  0.87823  0.84570  0.34704  1.0000
  H   H2        1.0  0.88495  0.82738  0.33293  1.0000
  N   N3        1.0  0.86578  0.11540  0.37243  1.0000
  C   C3        1.0  0.84518  0.13179  0.37670  1.0000
  H   H3        1.0  0.82693  0.12470  0.36362  1.0000
  N   N4        1.0  0.14557  0.89670  0.37188  1.0000
  C   C4        1.0  0.16619  0.88032  0.37573  1.0000
  H   H4        1.0  0.18444  0.88745  0.36290  1.0000
  C   C5        1.0  0.09624  0.97726  0.30291  1.0000
  C   C6        1.0  0.09794  0.03136  0.30772  1.0000
  N   N5        1.0  0.08289  0.01837  0.24749  1.0000
  C   C7        1.0  0.08180  0.99210  0.23914  1.0000
  N   N6        1.0  0.06492  0.98065  0.17437  1.0000
  O   O1        1.0  0.04923  0.99636  0.13790  1.0000
  O   O2        1.0  0.07851  0.97108  0.11219  1.0000
  C   C8        1.0  0.91501  0.03479  0.30269  1.0000
  C   C9        1.0  0.91333  0.98070  0.30789  1.0000
  N   N7        1.0  0.92835  0.99366  0.24752  1.0000
  C   C10       1.0  0.92942  0.01993  0.23894  1.0000
  N   N8        1.0  0.94631  0.03135  0.17411  1.0000
  O   O3        1.0  0.96198  0.01563  0.13767  1.0000
  O   O4        1.0  0.93271  0.04091  0.11192  1.0000
  C   C11       1.0  0.03410  0.09719  0.29779  1.0000
  C   C12       1.0  0.98008  0.09913  0.31004  1.0000
  N   N9        1.0  0.99237  0.08406  0.24800  1.0000
  C   C13       1.0  0.01852  0.08283  0.23613  1.0000
  N   N10       1.0  0.02931  0.06577  0.17061  1.0000
  O   O5        1.0  0.01341  0.04952  0.13847  1.0000
  O   O6        1.0  0.03762  0.07916  0.10579  1.0000
  C   C14       1.0  0.97723  0.91489  0.29854  1.0000
  C   C15       1.0  0.03121  0.91288  0.31041  1.0000
  N   N11       1.0  0.01892  0.92794  0.24836  1.0000
  C   C16       1.0  0.99277  0.92922  0.23668  1.0000
  N   N12       1.0  0.98196  0.94623  0.17105  1.0000
  O   O7        1.0  0.99787  0.96245  0.13874  1.0000
  O   O8        1.0  0.97364  0.93280  0.10638  1.0000
  C   C17       1.0  0.16647  0.30326  0.35688  1.0000
  C   C18       1.0  0.18394  0.25107  0.36071  1.0000
  N   N13       1.0  0.15832  0.25752  0.34770  1.0000
  C   C19       1.0  0.14866  0.28242  0.34511  1.0000
  N   N14       1.0  0.12194  0.28707  0.32945  1.0000
  O   O9        1.0  0.10838  0.27616  0.38911  1.0000
  O   O10       1.0  0.11539  0.27785  0.25429  1.0000
  C   C20       1.0  0.84479  0.70873  0.35748  1.0000
  C   C21       1.0  0.82740  0.76094  0.36078  1.0000
  N   N15       1.0  0.85301  0.75445  0.34770  1.0000
  C   C22       1.0  0.86263  0.72953  0.34533  1.0000
  N   N16       1.0  0.88933  0.72482  0.32952  1.0000
  O   O11       1.0  0.90295  0.73579  0.38892  1.0000
  O   O12       1.0  0.89585  0.73394  0.25419  1.0000
  C   C23       1.0  0.70747  0.16714  0.33098  1.0000
  C   C24       1.0  0.76017  0.18110  0.35040  1.0000
  N   N17       1.0  0.74318  0.19636  0.30420  1.0000
  C   C25       1.0  0.71749  0.19050  0.29191  1.0000
  N   N18       1.0  0.70187  0.20723  0.23879  1.0000
  O   O13       1.0  0.70257  0.23020  0.26832  1.0000
  O   O14       1.0  0.71019  0.20759  0.15916  1.0000
  C   C26       1.0  0.30386  0.84521  0.32858  1.0000
  C   C27       1.0  0.25120  0.83114  0.34803  1.0000
  N   N19       1.0  0.26820  0.81596  0.30159  1.0000
  C   C28       1.0  0.29388  0.82188  0.28926  1.0000
  N   N20       1.0  0.30952  0.80522  0.23595  1.0000
  O   O15       1.0  0.30889  0.78222  0.26532  1.0000
  O   O16       1.0  0.30117  0.80488  0.15635  1.0000
  N   N21       1.0  0.82155  0.29353  0.33362  1.0000
  C   C29       1.0  0.81146  0.26918  0.33645  1.0000
  H   H5        1.0  0.79197  0.26654  0.32503  1.0000
  N   N22       1.0  0.18979  0.71867  0.33011  1.0000
  C   C30       1.0  0.19991  0.74301  0.33310  1.0000
  H   H6        1.0  0.21939  0.74564  0.32146  1.0000
  N   N23       1.0  0.28415  0.15056  0.34650  1.0000
  C   C31       1.0  0.25837  0.15686  0.34283  1.0000
  H   H7        1.0  0.24562  0.14389  0.31458  1.0000
  N   N24       1.0  0.72728  0.86153  0.34536  1.0000
  C   C32       1.0  0.75306  0.85523  0.34219  1.0000
  H   H8        1.0  0.76589  0.86828  0.31487  1.0000
  C   C33       1.0  0.37799  0.10678  0.34642  1.0000
  C   C34       1.0  0.39749  0.05445  0.34511  1.0000
  N   N25       1.0  0.41301  0.07591  0.33549  1.0000
  C   C35       1.0  0.40501  0.10136  0.33512  1.0000
  N   N26       1.0  0.42381  0.12122  0.32403  1.0000
  O   O17       1.0  0.44055  0.12026  0.38588  1.0000
  O   O18       1.0  0.43537  0.11870  0.24982  1.0000
  C   C36       1.0  0.63369  0.90555  0.34383  1.0000
  C   C37       1.0  0.61448  0.95800  0.34265  1.0000
  N   N27       1.0  0.59890  0.93663  0.33206  1.0000
  C   C38       1.0  0.60673  0.91114  0.33151  1.0000
  N   N28       1.0  0.58781  0.89144  0.31930  1.0000
  O   O19       1.0  0.57087  0.89246  0.38046  1.0000
  O   O20       1.0  0.57651  0.89419  0.24472  1.0000
  C   C39       1.0  0.90558  0.37739  0.34223  1.0000
  C   C40       1.0  0.95766  0.39755  0.34392  1.0000
  N   N29       1.0  0.93600  0.41293  0.33749  1.0000
  C   C41       1.0  0.91064  0.40462  0.33614  1.0000
  N   N30       1.0  0.89049  0.42325  0.32837  1.0000
  O   O21       1.0  0.89126  0.43909  0.39302  1.0000
  O   O22       1.0  0.89280  0.43591  0.25625  1.0000
  C   C42       1.0  0.10557  0.63503  0.33888  1.0000
  C   C43       1.0  0.05341  0.61509  0.34090  1.0000
  N   N31       1.0  0.07501  0.59966  0.33358  1.0000
  C   C44       1.0  0.10040  0.60784  0.33200  1.0000
  N   N32       1.0  0.12042  0.58910  0.32322  1.0000
  O   O23       1.0  0.11963  0.57309  0.38734  1.0000
  O   O24       1.0  0.11787  0.57664  0.25079  1.0000
  N   N33       1.0  0.64744  0.08735  0.34340  1.0000
  C   C45       1.0  0.63942  0.06188  0.34259  1.0000
  H   H9        1.0  0.65297  0.04737  0.33633  1.0000
  N   N34       1.0  0.36384  0.92510  0.34237  1.0000
  C   C46       1.0  0.37187  0.95058  0.34200  1.0000
  H   H10       1.0  0.35832  0.96512  0.33652  1.0000
  N   N35       1.0  0.08682  0.36418  0.34800  1.0000
  C   C47       1.0  0.06137  0.37226  0.34611  1.0000
  H   H11       1.0  0.04681  0.35868  0.34263  1.0000
  N   N36       1.0  0.92427  0.64772  0.34793  1.0000
  C   C48       1.0  0.94971  0.63966  0.34574  1.0000
  H   H12       1.0  0.96425  0.65324  0.34129  1.0000
  C   C49       1.0  0.53335  0.00480  0.34192  1.0000
  C   C50       1.0  0.47814  0.00653  0.34332  1.0000
  N   N37       1.0  0.49159  0.98371  0.33674  1.0000
  C   C51       1.0  0.51817  0.98158  0.33550  1.0000
  N   N38       1.0  0.52954  0.95661  0.32710  1.0000
  O   O25       1.0  0.52271  0.94212  0.39125  1.0000
  O   O26       1.0  0.52261  0.94598  0.25459  1.0000
  C   C52       1.0  0.00694  0.53367  0.34186  1.0000
  C   C53       1.0  0.00530  0.47846  0.34335  1.0000
  N   N39       1.0  0.02810  0.49195  0.33706  1.0000
  C   C54       1.0  0.03019  0.51854  0.33581  1.0000
  N   N40       1.0  0.05516  0.52995  0.32779  1.0000
  O   O27       1.0  0.06957  0.52316  0.39220  1.0000
  O   O28       1.0  0.06589  0.52302  0.25548  1.0000
  N   N41       1.0  0.21019  0.40900  0.33577  1.0000
  C   C55       1.0  0.23414  0.42064  0.32973  1.0000
  H   H13       1.0  0.23557  0.43866  0.30076  1.0000
  N   N42       1.0  0.80091  0.60308  0.33699  1.0000
  C   C56       1.0  0.77694  0.59150  0.33088  1.0000
  H   H14       1.0  0.77547  0.57348  0.30198  1.0000
  N   N43       1.0  0.60315  0.21104  0.32624  1.0000
  C   C57       1.0  0.59196  0.23520  0.32116  1.0000
  H   H15       1.0  0.57503  0.23742  0.28564  1.0000
  N   N44       1.0  0.40813  0.80129  0.32400  1.0000
  C   C58       1.0  0.41931  0.77712  0.31907  1.0000
  H   H16       1.0  0.43619  0.77486  0.28333  1.0000
  C   C59       1.0  0.80804  0.38161  0.32355  1.0000
  C   C60       1.0  0.75800  0.40449  0.33664  1.0000
  N   N45       1.0  0.76153  0.38010  0.30396  1.0000
  C   C61       1.0  0.78506  0.36811  0.29489  1.0000
  N   N46       1.0  0.78531  0.34289  0.25622  1.0000
  O   O29       1.0  0.77132  0.32743  0.30101  1.0000
  O   O30       1.0  0.77675  0.34353  0.17687  1.0000
  C   C62       1.0  0.20313  0.63054  0.32027  1.0000
  C   C63       1.0  0.25320  0.60775  0.33389  1.0000
  N   N47       1.0  0.24963  0.63204  0.30030  1.0000
  C   C64       1.0  0.22608  0.64397  0.29091  1.0000
  N   N48       1.0  0.22577  0.66906  0.25127  1.0000
  O   O31       1.0  0.23978  0.68468  0.29532  1.0000
  O   O32       1.0  0.23427  0.66817  0.17188  1.0000
  C   C65       1.0  0.38358  0.20398  0.32424  1.0000
  C   C66       1.0  0.40501  0.25451  0.33677  1.0000
  N   N49       1.0  0.38138  0.25011  0.29871  1.0000
  C   C67       1.0  0.37011  0.22621  0.28905  1.0000
  N   N50       1.0  0.34563  0.22424  0.24461  1.0000
  O   O33       1.0  0.33404  0.24566  0.23292  1.0000
  O   O34       1.0  0.34912  0.21460  0.16771  1.0000
  C   C68       1.0  0.62764  0.80834  0.32172  1.0000
  C   C69       1.0  0.60619  0.75784  0.33482  1.0000
  N   N51       1.0  0.62974  0.76221  0.29618  1.0000
  C   C70       1.0  0.64100  0.78611  0.28616  1.0000
  N   N52       1.0  0.66541  0.78806  0.24126  1.0000
  O   O35       1.0  0.67691  0.76662  0.22894  1.0000
  O   O36       1.0  0.66181  0.79782  0.16458  1.0000
  C   C71       1.0  0.31129  0.53463  0.33022  1.0000
  C   C72       1.0  0.31488  0.47941  0.33412  1.0000
  N   N53       1.0  0.29340  0.49225  0.30430  1.0000
  C   C73       1.0  0.29044  0.51851  0.29929  1.0000
  N   N54       1.0  0.26672  0.52814  0.26366  1.0000
  O   O37       1.0  0.24760  0.52058  0.31004  1.0000
  O   O38       1.0  0.26347  0.52048  0.18397  1.0000
  C   C74       1.0  0.69989  0.47763  0.33202  1.0000
  C   C75       1.0  0.69622  0.53285  0.33531  1.0000
  N   N55       1.0  0.71775  0.52000  0.30586  1.0000
  C   C76       1.0  0.72075  0.49374  0.30116  1.0000
  N   N56       1.0  0.74452  0.48412  0.26590  1.0000
  O   O39       1.0  0.76357  0.49174  0.31241  1.0000
  O   O40       1.0  0.74783  0.49171  0.18617  1.0000
  C   C77       1.0  0.47769  0.31278  0.33134  1.0000
  C   C78       1.0  0.53296  0.31586  0.33524  1.0000
  N   N57       1.0  0.51993  0.29464  0.30420  1.0000
  C   C79       1.0  0.49363  0.29196  0.29905  1.0000
  N   N58       1.0  0.48378  0.26853  0.26193  1.0000
  O   O41       1.0  0.49115  0.24911  0.30710  1.0000
  O   O42       1.0  0.49140  0.26563  0.18205  1.0000
  C   C80       1.0  0.53351  0.69956  0.32994  1.0000
  C   C81       1.0  0.47824  0.69646  0.33357  1.0000
  N   N59       1.0  0.49128  0.71766  0.30242  1.0000
  C   C82       1.0  0.51758  0.72034  0.29738  1.0000
  N   N60       1.0  0.52744  0.74375  0.26013  1.0000
  O   O43       1.0  0.52005  0.76321  0.30512  1.0000
  O   O44       1.0  0.51985  0.74660  0.18019  1.0000
  N   N61       1.0  0.39344  0.37279  0.33932  1.0000
  C   C83       1.0  0.37646  0.39344  0.34064  1.0000
  H   H17       1.0  0.38343  0.41186  0.33012  1.0000
  N   N62       1.0  0.61772  0.63954  0.33905  1.0000
  C   C84       1.0  0.63467  0.61888  0.34071  1.0000
  H   H18       1.0  0.62769  0.60045  0.33042  1.0000
  N   N63       1.0  0.63980  0.39366  0.34168  1.0000
  C   C85       1.0  0.61911  0.37674  0.34331  1.0000
  H   H19       1.0  0.60068  0.38378  0.33348  1.0000
  N   N64       1.0  0.37140  0.61864  0.33960  1.0000
  C   C86       1.0  0.39209  0.63557  0.34134  1.0000
  H   H20       1.0  0.41052  0.62854  0.33150  1.0000
  C   C87       1.0  0.06053  0.09119  0.31094  1.0000
  N   N65       1.0  0.07883  0.10901  0.33439  1.0000
  C   C88       1.0  0.10406  0.10165  0.34932  1.0000
  N   N66       1.0  0.11068  0.07603  0.34099  1.0000
  C   C89       1.0  0.09264  0.05793  0.31850  1.0000
  N   N67       1.0  0.06786  0.06593  0.30415  1.0000
  C   C90       1.0  0.95079  0.92090  0.31159  1.0000
  N   N68       1.0  0.93250  0.90308  0.33509  1.0000
  C   C91       1.0  0.90727  0.91042  0.34992  1.0000
  N   N69       1.0  0.90062  0.93604  0.34145  1.0000
  C   C92       1.0  0.91865  0.95414  0.31891  1.0000
  N   N70       1.0  0.94344  0.94615  0.30464  1.0000
  C   C93       1.0  0.92071  0.06119  0.31899  1.0000
  N   N71       1.0  0.90314  0.07893  0.34901  1.0000
  C   C94       1.0  0.91038  0.10407  0.36676  1.0000
  N   N72       1.0  0.93576  0.11119  0.35422  1.0000
  C   C95       1.0  0.95367  0.09372  0.32504  1.0000
  N   N73       1.0  0.94567  0.06907  0.30861  1.0000
  C   C96       1.0  0.09056  0.95085  0.31911  1.0000
  N   N74       1.0  0.10817  0.93312  0.34889  1.0000
  C   C97       1.0  0.10095  0.90798  0.36656  1.0000
  N   N75       1.0  0.07557  0.90084  0.35419  1.0000
  C   C98       1.0  0.05764  0.91830  0.32526  1.0000
  N   N76       1.0  0.06561  0.94297  0.30890  1.0000
  C   C99       1.0  0.22406  0.19087  0.36749  1.0000
  N   N77       1.0  0.21744  0.21672  0.36709  1.0000
  C   C100      1.0  0.19196  0.22463  0.36260  1.0000
  N   N78       1.0  0.17319  0.20601  0.36031  1.0000
  C   C101      1.0  0.17916  0.18027  0.36220  1.0000
  N   N79       1.0  0.20457  0.17308  0.36538  1.0000
  C   C102      1.0  0.78731  0.82116  0.36695  1.0000
  N   N80       1.0  0.79393  0.79531  0.36662  1.0000
  C   C103      1.0  0.81942  0.78739  0.36249  1.0000
  N   N81       1.0  0.83820  0.80600  0.36045  1.0000
  C   C104      1.0  0.83223  0.83174  0.36228  1.0000
  N   N82       1.0  0.80682  0.83894  0.36512  1.0000
  C   C105      1.0  0.81949  0.22217  0.36207  1.0000
  N   N83       1.0  0.79394  0.21484  0.35292  1.0000
  C   C106      1.0  0.78638  0.18933  0.36001  1.0000
  N   N84       1.0  0.80510  0.17115  0.37467  1.0000
  C   C107      1.0  0.83059  0.17770  0.38356  1.0000
  N   N85       1.0  0.83740  0.20320  0.37691  1.0000
  C   C108      1.0  0.19194  0.78999  0.35964  1.0000
  N   N86       1.0  0.21748  0.79735  0.35032  1.0000
  C   C109      1.0  0.22501  0.82286  0.35772  1.0000
  N   N87       1.0  0.20629  0.84100  0.37283  1.0000
  C   C110      1.0  0.18082  0.83442  0.38189  1.0000
  N   N88       1.0  0.17403  0.80893  0.37495  1.0000
  C   C111      1.0  0.41025  0.98202  0.34678  1.0000
  N   N89       1.0  0.39689  0.00535  0.34665  1.0000
  C   C112      1.0  0.40952  0.02908  0.34529  1.0000
  N   N90       1.0  0.43612  0.02853  0.34421  1.0000
  C   C113      1.0  0.45036  0.00620  0.34432  1.0000
  N   N91       1.0  0.43685  0.98337  0.34556  1.0000
  C   C114      1.0  0.60115  0.03038  0.34712  1.0000
  N   N92       1.0  0.61482  0.00722  0.34600  1.0000
  C   C115      1.0  0.60248  0.98338  0.34334  1.0000
  N   N93       1.0  0.57593  0.98378  0.34182  1.0000
  C   C116      1.0  0.56124  0.00578  0.34285  1.0000
  N   N94       1.0  0.57453  0.02876  0.34571  1.0000
  C   C117      1.0  0.02999  0.41066  0.34689  1.0000
  N   N95       1.0  0.00671  0.39723  0.34636  1.0000
  C   C118      1.0  0.98294  0.40976  0.34477  1.0000
  N   N96       1.0  0.98338  0.43637  0.34387  1.0000
  C   C119      1.0  0.00568  0.45068  0.34430  1.0000
  N   N97       1.0  0.02855  0.43725  0.34576  1.0000
  C   C120      1.0  0.98115  0.60137  0.34663  1.0000
  N   N98       1.0  0.00425  0.61512  0.34505  1.0000
  C   C121      1.0  0.02814  0.60289  0.34230  1.0000
  N   N99       1.0  0.02786  0.57633  0.34114  1.0000
  C   C122      1.0  0.00590  0.56156  0.34257  1.0000
  N   N100      1.0  0.98286  0.57476  0.34549  1.0000
  C   C123      1.0  0.32911  0.40813  0.35307  1.0000
  N   N101      1.0  0.33321  0.43451  0.34565  1.0000
  C   C124      1.0  0.31281  0.45175  0.34099  1.0000
  N   N102      1.0  0.28812  0.44186  0.34396  1.0000
  C   C125      1.0  0.28287  0.41611  0.35238  1.0000
  N   N103      1.0  0.30378  0.39974  0.35709  1.0000
  C   C126      1.0  0.68200  0.60415  0.35371  1.0000
  N   N104      1.0  0.67788  0.57777  0.34642  1.0000
  C   C127      1.0  0.69827  0.56051  0.34206  1.0000
  N   N105      1.0  0.72297  0.57038  0.34518  1.0000
  C   C128      1.0  0.72823  0.59613  0.35350  1.0000
  N   N106      1.0  0.70734  0.61253  0.35790  1.0000
  C   C129      1.0  0.60432  0.32944  0.35535  1.0000
  N   N107      1.0  0.57799  0.33374  0.34760  1.0000
  C   C130      1.0  0.56060  0.31349  0.34232  1.0000
  N   N108      1.0  0.57033  0.28872  0.34483  1.0000
  C   C131      1.0  0.59604  0.28328  0.35380  1.0000
  N   N109      1.0  0.61257  0.30405  0.35928  1.0000
  C   C132      1.0  0.40686  0.68288  0.35330  1.0000
  N   N110      1.0  0.43320  0.67857  0.34571  1.0000
  C   C133      1.0  0.45059  0.69882  0.34045  1.0000
  N   N111      1.0  0.44087  0.72359  0.34286  1.0000
  C   C134      1.0  0.41515  0.72904  0.35166  1.0000
  N   N112      1.0  0.39861  0.70828  0.35712  1.0000
  C   C135      1.0  0.68585  0.40585  0.34774  1.0000
  N   N113      1.0  0.68183  0.43239  0.34383  1.0000
  C   C136      1.0  0.70220  0.44981  0.33878  1.0000
  N   N114      1.0  0.72677  0.43973  0.33969  1.0000
  C   C137      1.0  0.73205  0.41397  0.34230  1.0000
  N   N115      1.0  0.71119  0.39767  0.34509  1.0000
  C   C138      1.0  0.32534  0.60643  0.34548  1.0000
  N   N116      1.0  0.32937  0.57989  0.34181  1.0000
  C   C139      1.0  0.30900  0.56246  0.33676  1.0000
  N   N117      1.0  0.28443  0.57254  0.33743  1.0000
  C   C140      1.0  0.27915  0.59830  0.33973  1.0000
  N   N118      1.0  0.30001  0.61461  0.34257  1.0000
  C   C141      1.0  0.40578  0.32675  0.34650  1.0000
  N   N119      1.0  0.43233  0.33088  0.34278  1.0000
  C   C142      1.0  0.44984  0.31057  0.33823  1.0000
  N   N120      1.0  0.43982  0.28600  0.33970  1.0000
  C   C143      1.0  0.41409  0.28060  0.34202  1.0000
  N   N121      1.0  0.39766  0.30137  0.34410  1.0000
  C   C144      1.0  0.60541  0.68560  0.34562  1.0000
  N   N122      1.0  0.57887  0.68147  0.34186  1.0000
  C   C145      1.0  0.56136  0.70178  0.33698  1.0000
  N   N123      1.0  0.57138  0.72635  0.33815  1.0000
  C   C146      1.0  0.59712  0.73174  0.34052  1.0000
  N   N124      1.0  0.61354  0.71097  0.34290  1.0000
  C   C147      1.0  0.18097  0.37257  0.36601  1.0000
  N   N125      1.0  0.15665  0.38365  0.36078  1.0000
  C   C148      1.0  0.13406  0.36902  0.35492  1.0000
  N   N126      1.0  0.13678  0.34236  0.35320  1.0000
  C   C149      1.0  0.16059  0.33044  0.35636  1.0000
  N   N127      1.0  0.18146  0.34634  0.36216  1.0000
  C   C150      1.0  0.83018  0.63945  0.36724  1.0000
  N   N128      1.0  0.85448  0.62832  0.36204  1.0000
  C   C151      1.0  0.87708  0.64291  0.35602  1.0000
  N   N129      1.0  0.87441  0.66958  0.35405  1.0000
  C   C152      1.0  0.85063  0.68154  0.35719  1.0000
  N   N130      1.0  0.82973  0.66567  0.36319  1.0000
  C   C153      1.0  0.63866  0.18139  0.36100  1.0000
  N   N131      1.0  0.62777  0.15698  0.35947  1.0000
  C   C154      1.0  0.64248  0.13459  0.35031  1.0000
  N   N132      1.0  0.66896  0.13767  0.34066  1.0000
  C   C155      1.0  0.68038  0.16172  0.33724  1.0000
  N   N133      1.0  0.66471  0.18258  0.34874  1.0000
  C   C156      1.0  0.37266  0.83100  0.35858  1.0000
  N   N134      1.0  0.38354  0.85543  0.35723  1.0000
  C   C157      1.0  0.36881  0.87782  0.34809  1.0000
  N   N135      1.0  0.34235  0.87473  0.33838  1.0000
  C   C158      1.0  0.33094  0.85067  0.33484  1.0000
  N   N136      1.0  0.34662  0.82981  0.34627  1.0000
  C   C159      1.0  0.83307  0.36926  0.32963  1.0000
  N   N137      1.0  0.85736  0.38033  0.33357  1.0000
  C   C160      1.0  0.87992  0.36578  0.34104  1.0000
  N   N138      1.0  0.87724  0.33912  0.34603  1.0000
  C   C161      1.0  0.85338  0.32720  0.34397  1.0000
  N   N139      1.0  0.83257  0.34311  0.33642  1.0000
  C   C162      1.0  0.17812  0.64293  0.32630  1.0000
  N   N140      1.0  0.15380  0.63191  0.33021  1.0000
  C   C163      1.0  0.13128  0.64653  0.33770  1.0000
  N   N141      1.0  0.13404  0.67318  0.34277  1.0000
  C   C164      1.0  0.15793  0.68503  0.34072  1.0000
  N   N142      1.0  0.17870  0.66908  0.33312  1.0000
  C   C165      1.0  0.37101  0.17933  0.33578  1.0000
  N   N143      1.0  0.38160  0.15484  0.33579  1.0000
  C   C166      1.0  0.36684  0.13265  0.34869  1.0000
  N   N144      1.0  0.34057  0.13600  0.36403  1.0000
  C   C167      1.0  0.32950  0.16023  0.36929  1.0000
  N   N145      1.0  0.34532  0.18069  0.35374  1.0000
  C   C168      1.0  0.64028  0.83296  0.33340  1.0000
  N   N146      1.0  0.62980  0.85750  0.33327  1.0000
  C   C169      1.0  0.64468  0.87962  0.34620  1.0000
  N   N147      1.0  0.67092  0.87614  0.36166  1.0000
  C   C170      1.0  0.68188  0.85185  0.36687  1.0000
  N   N148      1.0  0.66595  0.83147  0.35135  1.0000
  C   C171      1.0  0.12335  0.12083  0.36152  1.0000
  C   C172      1.0  0.15975  0.16110  0.36270  1.0000
  N   N149      1.0  0.16678  0.13603  0.37966  1.0000
  C   C173      1.0  0.14998  0.11556  0.38058  1.0000
  N   N150      1.0  0.15957  0.09034  0.39991  1.0000
  O   O45       1.0  0.17676  0.08382  0.34380  1.0000
  O   O46       1.0  0.16953  0.08976  0.47728  1.0000
  C   C174      1.0  0.88800  0.89122  0.36223  1.0000
  C   C175      1.0  0.85163  0.85092  0.36305  1.0000
  N   N151      1.0  0.84458  0.87598  0.38008  1.0000
  C   C176      1.0  0.86136  0.89647  0.38116  1.0000
  N   N152      1.0  0.85175  0.92167  0.40055  1.0000
  O   O47       1.0  0.83457  0.92819  0.34439  1.0000
  O   O48       1.0  0.84176  0.92222  0.47788  1.0000
  C   C177      1.0  0.89103  0.12288  0.38480  1.0000
  C   C178      1.0  0.85002  0.15857  0.39091  1.0000
  N   N153      1.0  0.87515  0.16611  0.40416  1.0000
  C   C179      1.0  0.89593  0.14962  0.40340  1.0000
  N   N154      1.0  0.92120  0.15966  0.41861  1.0000
  O   O49       1.0  0.92676  0.17678  0.36104  1.0000
  O   O50       1.0  0.92252  0.16987  0.49546  1.0000
  C   C180      1.0  0.12034  0.88916  0.38423  1.0000
  C   C181      1.0  0.16138  0.85353  0.38967  1.0000
  N   N155      1.0  0.13628  0.84594  0.40299  1.0000
  C   C182      1.0  0.11547  0.86240  0.40257  1.0000
  N   N156      1.0  0.09022  0.85232  0.41780  1.0000
  O   O51       1.0  0.08466  0.83524  0.36005  1.0000
  O   O52       1.0  0.08895  0.84203  0.49454  1.0000
  N   N157      1.0  0.11187  0.99012  0.36255  1.0000
  C   C183      1.0  0.11414  0.01655  0.36498  1.0000
  H   H21       1.0  0.12494  0.02514  0.41466  1.0000
  N   N158      1.0  0.89943  0.02196  0.36252  1.0000
  C   C184      1.0  0.89707  0.99553  0.36492  1.0000
  H   H22       1.0  0.88646  0.98697  0.41515  1.0000
  N   N159      1.0  0.02198  0.11282  0.35927  1.0000
  C   C185      1.0  0.99561  0.11527  0.36519  1.0000
  H   H23       1.0  0.98769  0.12595  0.41649  1.0000
  N   N160      1.0  0.98932  0.89926  0.36005  1.0000
  C   C186      1.0  0.01570  0.89684  0.36593  1.0000
  H   H24       1.0  0.02368  0.88609  0.41697  1.0000
  N   N161      1.0  0.19201  0.29647  0.36966  1.0000
  C   C187      1.0  0.20153  0.27188  0.37198  1.0000
  H   H25       1.0  0.22103  0.26900  0.38228  1.0000
  N   N162      1.0  0.81927  0.71556  0.37031  1.0000
  C   C188      1.0  0.80979  0.74017  0.37236  1.0000
  H   H26       1.0  0.79030  0.74308  0.38281  1.0000
  N   N163      1.0  0.72461  0.15155  0.37578  1.0000
  C   C189      1.0  0.75040  0.15723  0.38481  1.0000
  H   H27       1.0  0.76198  0.14476  0.42073  1.0000
  N   N164      1.0  0.28672  0.86075  0.37354  1.0000
  C   C190      1.0  0.26094  0.85501  0.38265  1.0000
  H   H28       1.0  0.24934  0.86745  0.41858  1.0000
  C   C191      1.0  0.84708  0.30010  0.34772  1.0000
  C   C192      1.0  0.82836  0.24832  0.35604  1.0000
  N   N165      1.0  0.85402  0.25450  0.37010  1.0000
  C   C193      1.0  0.86427  0.27918  0.36671  1.0000
  N   N166      1.0  0.89094  0.28367  0.38391  1.0000
  O   O53       1.0  0.90472  0.27125  0.32852  1.0000
  O   O54       1.0  0.89670  0.27596  0.46180  1.0000
  C   C194      1.0  0.16427  0.71212  0.34453  1.0000
  C   C195      1.0  0.18306  0.76385  0.35331  1.0000
  N   N167      1.0  0.15742  0.75769  0.36772  1.0000
  C   C196      1.0  0.14713  0.73303  0.36414  1.0000
  N   N168      1.0  0.12049  0.72855  0.38181  1.0000
  O   O55       1.0  0.10663  0.74106  0.32690  1.0000
  O   O56       1.0  0.11487  0.73616  0.45995  1.0000
  C   C197      1.0  0.30273  0.16668  0.38112  1.0000
  C   C198      1.0  0.25012  0.18189  0.37180  1.0000
  N   N169      1.0  0.26852  0.19771  0.40782  1.0000
  C   C199      1.0  0.29422  0.19133  0.41505  1.0000
  N   N170      1.0  0.31126  0.20929  0.45709  1.0000
  O   O57       1.0  0.31062  0.23103  0.41791  1.0000
  O   O58       1.0  0.30468  0.21276  0.53777  1.0000
  C   C200      1.0  0.70862  0.84531  0.37888  1.0000
  C   C201      1.0  0.76126  0.83014  0.37078  1.0000
  N   N171      1.0  0.74277  0.81423  0.40581  1.0000
  C   C202      1.0  0.71705  0.82058  0.41242  1.0000
  N   N172      1.0  0.69992  0.80252  0.45351  1.0000
  O   O59       1.0  0.70068  0.78086  0.41376  1.0000
  O   O60       1.0  0.70631  0.79887  0.53428  1.0000
  N   N173      1.0  0.36228  0.08530  0.35600  1.0000
  C   C203      1.0  0.37062  0.05991  0.35543  1.0000
  H   H29       1.0  0.35737  0.04520  0.36357  1.0000
  N   N174      1.0  0.64948  0.92694  0.35436  1.0000
  C   C204      1.0  0.64129  0.95239  0.35387  1.0000
  H   H30       1.0  0.65458  0.96701  0.36297  1.0000
  N   N175      1.0  0.92727  0.36184  0.34850  1.0000
  C   C205      1.0  0.95255  0.37049  0.34949  1.0000
  H   H31       1.0  0.96742  0.35730  0.35459  1.0000
  N   N176      1.0  0.08395  0.65066  0.34600  1.0000
  C   C206      1.0  0.05863  0.64211  0.34719  1.0000
  H   H32       1.0  0.04382  0.65534  0.35305  1.0000
  C   C207      1.0  0.63141  0.10865  0.35079  1.0000
  C   C208      1.0  0.61251  0.05607  0.34908  1.0000
  N   N177      1.0  0.59660  0.07732  0.35655  1.0000
  C   C209      1.0  0.60434  0.10290  0.35812  1.0000
  N   N178      1.0  0.58535  0.12266  0.36675  1.0000
  O   O61       1.0  0.56935  0.12162  0.30266  1.0000
  O   O62       1.0  0.57297  0.12000  0.43928  1.0000
  C   C210      1.0  0.37987  0.90376  0.34880  1.0000
  C   C211      1.0  0.39879  0.95637  0.34795  1.0000
  N   N179      1.0  0.41469  0.93507  0.35441  1.0000
  C   C212      1.0  0.40695  0.90949  0.35549  1.0000
  N   N180      1.0  0.42598  0.88972  0.36293  1.0000
  O   O63       1.0  0.44181  0.89093  0.29836  1.0000
  O   O64       1.0  0.43857  0.89221  0.43511  1.0000
  C   C213      1.0  0.10820  0.38021  0.35243  1.0000
  C   C214      1.0  0.05565  0.39923  0.34871  1.0000
  N   N181      1.0  0.07699  0.41515  0.35329  1.0000
  C   C215      1.0  0.10254  0.40737  0.35540  1.0000
  N   N182      1.0  0.12240  0.42636  0.36092  1.0000
  O   O65       1.0  0.12131  0.44155  0.29452  1.0000
  O   O66       1.0  0.11987  0.43966  0.43156  1.0000
  C   C216      1.0  0.90293  0.63169  0.35348  1.0000
  C   C217      1.0  0.95546  0.61269  0.34917  1.0000
  N   N183      1.0  0.93416  0.59676  0.35487  1.0000
  C   C218      1.0  0.90861  0.60455  0.35737  1.0000
  N   N184      1.0  0.88876  0.58559  0.36425  1.0000
  O   O67       1.0  0.88968  0.57017  0.29846  1.0000
  O   O68       1.0  0.89144  0.57254  0.43538  1.0000
  N   N185      1.0  0.51982  0.02766  0.34815  1.0000
  C   C219      1.0  0.49334  0.02951  0.34880  1.0000
  H   H33       1.0  0.48492  0.04752  0.35400  1.0000
  N   N186      1.0  0.98410  0.52011  0.34782  1.0000
  C   C220      1.0  0.98228  0.49362  0.34850  1.0000
  H   H34       1.0  0.96428  0.48517  0.35350  1.0000
  C   C221      1.0  0.20614  0.38481  0.37164  1.0000
  C   C222      1.0  0.25671  0.40691  0.35817  1.0000
  N   N187      1.0  0.25255  0.38317  0.39561  1.0000
  C   C223      1.0  0.22878  0.37163  0.40503  1.0000
  N   N188      1.0  0.22786  0.34714  0.44887  1.0000
  O   O69       1.0  0.24184  0.33070  0.40843  1.0000
  O   O70       1.0  0.23595  0.34903  0.52856  1.0000
  C   C224      1.0  0.80501  0.62726  0.37290  1.0000
  C   C225      1.0  0.75441  0.60528  0.35935  1.0000
  N   N189      1.0  0.75860  0.62899  0.39693  1.0000
  C   C226      1.0  0.78240  0.64048  0.40642  1.0000
  N   N190      1.0  0.78340  0.66494  0.45040  1.0000
  O   O71       1.0  0.76945  0.68143  0.41009  1.0000
  O   O72       1.0  0.77532  0.66302  0.53010  1.0000
  C   C227      1.0  0.62596  0.20608  0.37040  1.0000
  C   C228      1.0  0.60498  0.25702  0.35891  1.0000
  N   N191      1.0  0.62733  0.25191  0.40467  1.0000
  C   C229      1.0  0.63822  0.22776  0.41344  1.0000
  N   N192      1.0  0.66078  0.22487  0.46734  1.0000
  O   O73       1.0  0.67872  0.23977  0.44105  1.0000
  O   O74       1.0  0.65568  0.23063  0.54773  1.0000
  C   C230      1.0  0.38533  0.80629  0.36816  1.0000
  C   C231      1.0  0.40624  0.75531  0.35675  1.0000
  N   N193      1.0  0.38390  0.76046  0.40246  1.0000
  C   C232      1.0  0.37304  0.78463  0.41120  1.0000
  N   N194      1.0  0.35046  0.78755  0.46500  1.0000
  O   O75       1.0  0.33251  0.77269  0.43860  1.0000
  O   O76       1.0  0.35552  0.78177  0.54541  1.0000
  N   N195      1.0  0.80458  0.40647  0.35433  1.0000
  C   C233      1.0  0.78085  0.41852  0.35978  1.0000
  H   H35       1.0  0.77979  0.43705  0.38483  1.0000
  N   N196      1.0  0.20661  0.60577  0.35183  1.0000
  C   C234      1.0  0.23037  0.59376  0.35759  1.0000
  H   H36       1.0  0.23145  0.57529  0.38313  1.0000
  N   N197      1.0  0.40764  0.20822  0.36059  1.0000
  C   C235      1.0  0.41909  0.23223  0.36540  1.0000
  H   H37       1.0  0.43704  0.23396  0.39469  1.0000
  N   N198      1.0  0.60365  0.80412  0.35872  1.0000
  C   C236      1.0  0.59216  0.78013  0.36366  1.0000
  H   H38       1.0  0.57432  0.77840  0.39376  1.0000
  N   N199      1.0  0.33332  0.52193  0.35843  1.0000
  C   C237      1.0  0.33613  0.49534  0.36003  1.0000
  H   H39       1.0  0.35292  0.48733  0.38472  1.0000
  N   N200      1.0  0.67782  0.49033  0.35991  1.0000
  C   C238      1.0  0.67498  0.51691  0.36129  1.0000
  H   H40       1.0  0.65816  0.52493  0.38563  1.0000
  N   N201      1.0  0.49059  0.33457  0.36075  1.0000
  C   C239      1.0  0.51721  0.33712  0.36241  1.0000
  H   H41       1.0  0.52538  0.35372  0.38798  1.0000
  N   N202      1.0  0.52060  0.67778  0.35942  1.0000
  C   C240      1.0  0.49399  0.67520  0.36081  1.0000
  H   H42       1.0  0.48581  0.65865  0.38672  1.0000
  C   C241      1.0  0.38647  0.34722  0.35104  1.0000
  C   C242      1.0  0.34948  0.38893  0.35412  1.0000
  N   N203      1.0  0.34273  0.36351  0.36645  1.0000
  C   C243      1.0  0.35934  0.34271  0.36632  1.0000
  N   N204      1.0  0.34869  0.31770  0.38236  1.0000
  O   O77       1.0  0.33200  0.31198  0.32351  1.0000
  O   O78       1.0  0.33793  0.31676  0.45842  1.0000
  C   C244      1.0  0.62470  0.66511  0.35052  1.0000
  C   C245      1.0  0.66165  0.62338  0.35436  1.0000
  N   N205      1.0  0.66842  0.64880  0.36647  1.0000
  C   C246      1.0  0.65183  0.66962  0.36595  1.0000
  N   N206      1.0  0.66248  0.69463  0.38180  1.0000
  O   O79       1.0  0.67922  0.70029  0.32302  1.0000
  O   O80       1.0  0.67319  0.69564  0.45794  1.0000
  C   C247      1.0  0.66536  0.38658  0.35255  1.0000
  C   C248      1.0  0.62358  0.34974  0.35634  1.0000
  N   N207      1.0  0.64900  0.34287  0.36767  1.0000
  C   C249      1.0  0.66985  0.35941  0.36712  1.0000
  N   N208      1.0  0.69487  0.34865  0.38191  1.0000
  O   O81       1.0  0.70034  0.33207  0.32237  1.0000
  O   O82       1.0  0.69602  0.33771  0.45763  1.0000
  C   C250      1.0  0.34583  0.62571  0.35034  1.0000
  C   C251      1.0  0.38760  0.66258  0.35427  1.0000
  N   N209      1.0  0.36218  0.66944  0.36548  1.0000
  C   C252      1.0  0.34133  0.65288  0.36486  1.0000
  N   N210      1.0  0.31631  0.66363  0.37956  1.0000
  O   O83       1.0  0.31084  0.68021  0.32000  1.0000
  O   O84       1.0  0.31513  0.67457  0.45528  1.0000
