data_image0
_chemical_formula_structural       C3HCHNC3NHCNCOCNC2O2CH3C3HCHNC3NHCNCOCNC2O2CH4C2H3CHN2CHCH2C2NH2C3NH2C2OCH3CNC2O2CH3C2H3CHN2CHCH2C2NH2C3NH2C2OCH3CNC2O2CH2C3HC6H2NCHC3NCH2C3NHC2NC2O2CH5C2HC3HC6H2NCHC3NCH2C3NHC2NC2O2CH5C2HC3H3NCHNCHC3NH3C2NC2O2CHC2NC2O2CH3C3H3NCHNCHC3NH3C2NC2O2CHC2NC2O2CH3C3HC3H3C3HC3H3C3HC3H3NCHNCHNCHNCHNCHNCHC3NC3NH4C3NC3NH4C3NC3NH4C2NC2O2CH3C2NC2O2CH3C2NC2O2CH3C2NC2O2CH3C2NC2O2CH3C2NC2O2CH3C3HC3H3C3HC3H3C3HC3H3NCHNCHNCHNCHNCHNCHC3NC3NH4C3NC3NH4C3NC3NH4C2NC2O2CH3C2NC2O2CH3C2NC2O2CH3C2NC2O2CH3C2NC2O2CH3C2NC2O2CH3
_chemical_formula_sum              "C288 H192 N72 O48"
_cell_length_a       46.3422
_cell_length_b       46.3422
_cell_length_c       14.7972
_cell_angle_alpha    90
_cell_angle_beta     90
_cell_angle_gamma    120

_space_group_name_H-M_alt    "P 1"
_space_group_IT_number       1

loop_
  _space_group_symop_operation_xyz
  'x, y, z'

loop_
  _atom_site_type_symbol
  _atom_site_label
  _atom_site_symmetry_multiplicity
  _atom_site_fract_x
  _atom_site_fract_y
  _atom_site_fract_z
  _atom_site_occupancy
  C   C1        1.0  0.02838  0.26613  0.33366  1.0000
  C   C2        1.0  0.08292  0.32073  0.33171  1.0000
  C   C3        1.0  0.04754  0.30179  0.33347  1.0000
  H   H1        1.0  0.03583  0.31538  0.33558  1.0000
  C   C4        1.0  0.12307  0.25353  0.25493  1.0000
  H   H2        1.0  0.12115  0.26294  0.19418  1.0000
  N   N1        1.0  0.11966  0.37344  0.26819  1.0000
  C   C5        1.0  0.04845  0.25055  0.33314  1.0000
  C   C6        1.0  0.08382  0.26790  0.32749  1.0000
  C   C7        1.0  0.10135  0.30356  0.32792  1.0000
  N   N2        1.0  0.13550  0.32113  0.32981  1.0000
  H   H3        1.0  0.03738  0.22528  0.33401  1.0000
  C   C8        1.0  0.10129  0.24981  0.32670  1.0000
  N   N3        1.0  0.10977  0.24248  0.40829  1.0000
  C   C9        1.0  0.13641  0.23806  0.42559  1.0000
  O   O1        1.0  0.12042  0.22547  0.57043  1.0000
  C   C10       1.0  0.09967  0.35621  0.33945  1.0000
  N   N4        1.0  0.14048  0.40054  0.42955  1.0000
  C   C11       1.0  0.11014  0.37190  0.42570  1.0000
  C   C12       1.0  0.09501  0.35658  0.50697  1.0000
  O   O2        1.0  0.10908  0.37054  0.57731  1.0000
  O   O3        1.0  0.06168  0.34084  0.51043  1.0000
  C   C13       1.0  0.04679  0.31011  0.56081  1.0000
  H   H4        1.0  0.01980  0.29844  0.55464  1.0000
  H   H5        1.0  0.05319  0.31463  0.63247  1.0000
  H   H6        1.0  0.05424  0.29276  0.53451  1.0000
  C   C14       1.0  0.02838  0.76613  0.33366  1.0000
  C   C15       1.0  0.08292  0.82073  0.33171  1.0000
  C   C16       1.0  0.04754  0.80179  0.33347  1.0000
  H   H7        1.0  0.03583  0.81538  0.33558  1.0000
  C   C17       1.0  0.12307  0.75353  0.25493  1.0000
  H   H8        1.0  0.12115  0.76294  0.19418  1.0000
  N   N5        1.0  0.11966  0.87344  0.26819  1.0000
  C   C18       1.0  0.04845  0.75055  0.33314  1.0000
  C   C19       1.0  0.08383  0.76790  0.32749  1.0000
  C   C20       1.0  0.10135  0.80356  0.32792  1.0000
  N   N6        1.0  0.13550  0.82113  0.32981  1.0000
  H   H9        1.0  0.03738  0.72528  0.33401  1.0000
  C   C21       1.0  0.10130  0.74982  0.32670  1.0000
  N   N7        1.0  0.10976  0.74248  0.40829  1.0000
  C   C22       1.0  0.13641  0.73806  0.42559  1.0000
  O   O4        1.0  0.12043  0.72547  0.57043  1.0000
  C   C23       1.0  0.09967  0.85621  0.33945  1.0000
  N   N8        1.0  0.14048  0.90054  0.42955  1.0000
  C   C24       1.0  0.11014  0.87190  0.42570  1.0000
  C   C25       1.0  0.09501  0.85658  0.50697  1.0000
  O   O5        1.0  0.10908  0.87054  0.57731  1.0000
  O   O6        1.0  0.06168  0.84084  0.51043  1.0000
  C   C26       1.0  0.04679  0.81011  0.56081  1.0000
  H   H10       1.0  0.01980  0.79844  0.55464  1.0000
  H   H11       1.0  0.05319  0.81463  0.63247  1.0000
  H   H12       1.0  0.05424  0.79276  0.53451  1.0000
  H   H13       1.0  0.14832  0.34504  0.33364  1.0000
  C   C27       1.0  0.19552  0.26331  0.37001  1.0000
  C   C28       1.0  0.21476  0.24806  0.34938  1.0000
  H   H14       1.0  0.20160  0.22322  0.33551  1.0000
  H   H15       1.0  0.17462  0.30028  0.45383  1.0000
  H   H16       1.0  0.22955  0.03497  0.34109  1.0000
  C   C29       1.0  0.24819  0.43464  0.37722  1.0000
  H   H17       1.0  0.21274  0.38326  0.47587  1.0000
  N   N9        1.0  0.15207  0.25413  0.27406  1.0000
  N   N10       1.0  0.24771  0.39137  0.29611  1.0000
  C   C30       1.0  0.24813  0.36251  0.28708  1.0000
  H   H18       1.0  0.23422  0.34652  0.23653  1.0000
  C   C31       1.0  0.14785  0.40384  0.27305  1.0000
  H   H19       1.0  0.16240  0.41273  0.21655  1.0000
  H   H20       1.0  0.14887  0.31064  0.32960  1.0000
  C   C32       1.0  0.24758  0.31741  0.37284  1.0000
  C   C33       1.0  0.21281  0.29794  0.39109  1.0000
  N   N11       1.0  0.19707  0.31283  0.43121  1.0000
  H   H21       1.0  0.21011  0.33444  0.45877  1.0000
  H   H22       1.0  0.22970  0.19800  0.34648  1.0000
  C   C34       1.0  0.21482  0.47000  0.34422  1.0000
  C   C35       1.0  0.19586  0.43611  0.37155  1.0000
  C   C36       1.0  0.21362  0.41969  0.39835  1.0000
  N   N12       1.0  0.19896  0.39014  0.44416  1.0000
  H   H23       1.0  0.17647  0.37967  0.46639  1.0000
  H   H24       1.0  0.20155  0.48139  0.32802  1.0000
  C   C37       1.0  0.16040  0.24639  0.35525  1.0000
  C   C38       1.0  0.14243  0.23262  0.51435  1.0000
  O   O7        1.0  0.15953  0.21661  0.52655  1.0000
  C   C39       1.0  0.18637  0.23261  0.59062  1.0000
  H   H25       1.0  0.19933  0.21844  0.59350  1.0000
  H   H26       1.0  0.17704  0.23286  0.65829  1.0000
  H   H27       1.0  0.20435  0.25810  0.57034  1.0000
  C   C40       1.0  0.16063  0.41765  0.35891  1.0000
  N   N13       1.0  0.24510  0.13968  0.42671  1.0000
  C   C41       1.0  0.24223  0.10874  0.43301  1.0000
  C   C42       1.0  0.23035  0.09115  0.51347  1.0000
  O   O8        1.0  0.21687  0.10067  0.56759  1.0000
  O   O9        1.0  0.21639  0.05792  0.51032  1.0000
  C   C43       1.0  0.22931  0.04481  0.57730  1.0000
  H   H28       1.0  0.21740  0.01795  0.56744  1.0000
  H   H29       1.0  0.22359  0.04935  0.64571  1.0000
  H   H30       1.0  0.14832  0.84503  0.33364  1.0000
  C   C44       1.0  0.19552  0.76331  0.37001  1.0000
  C   C45       1.0  0.21476  0.74806  0.34938  1.0000
  H   H31       1.0  0.20160  0.72322  0.33551  1.0000
  H   H32       1.0  0.17462  0.80028  0.45383  1.0000
  H   H33       1.0  0.22955  0.53496  0.34109  1.0000
  C   C46       1.0  0.24819  0.93463  0.37722  1.0000
  H   H34       1.0  0.21274  0.88326  0.47587  1.0000
  N   N14       1.0  0.15207  0.75413  0.27406  1.0000
  N   N15       1.0  0.24771  0.89137  0.29611  1.0000
  C   C47       1.0  0.24813  0.86251  0.28708  1.0000
  H   H35       1.0  0.23423  0.84652  0.23653  1.0000
  C   C48       1.0  0.14785  0.90384  0.27305  1.0000
  H   H36       1.0  0.16240  0.91273  0.21655  1.0000
  H   H37       1.0  0.14886  0.81064  0.32960  1.0000
  C   C49       1.0  0.24758  0.81741  0.37284  1.0000
  C   C50       1.0  0.21281  0.79794  0.39109  1.0000
  N   N16       1.0  0.19707  0.81283  0.43121  1.0000
  H   H38       1.0  0.21011  0.83444  0.45877  1.0000
  H   H39       1.0  0.22970  0.69800  0.34648  1.0000
  C   C51       1.0  0.21482  0.97000  0.34422  1.0000
  C   C52       1.0  0.19586  0.93611  0.37155  1.0000
  C   C53       1.0  0.21362  0.91969  0.39835  1.0000
  N   N17       1.0  0.19896  0.89014  0.44416  1.0000
  H   H40       1.0  0.17647  0.87967  0.46639  1.0000
  H   H41       1.0  0.20156  0.98139  0.32802  1.0000
  C   C54       1.0  0.16040  0.74639  0.35525  1.0000
  C   C55       1.0  0.14243  0.73262  0.51435  1.0000
  O   O10       1.0  0.15953  0.71661  0.52655  1.0000
  C   C56       1.0  0.18637  0.73261  0.59062  1.0000
  H   H42       1.0  0.19933  0.71844  0.59350  1.0000
  H   H43       1.0  0.17704  0.73286  0.65829  1.0000
  H   H44       1.0  0.20435  0.75809  0.57034  1.0000
  C   C57       1.0  0.16063  0.91765  0.35891  1.0000
  N   N18       1.0  0.24510  0.63968  0.42671  1.0000
  C   C58       1.0  0.24223  0.60874  0.43301  1.0000
  C   C59       1.0  0.23035  0.59115  0.51347  1.0000
  O   O11       1.0  0.21687  0.60067  0.56759  1.0000
  O   O12       1.0  0.21639  0.55792  0.51032  1.0000
  C   C60       1.0  0.22931  0.54481  0.57730  1.0000
  H   H45       1.0  0.21740  0.51795  0.56744  1.0000
  H   H46       1.0  0.22360  0.54935  0.64571  1.0000
  C   C61       1.0  0.26981  0.24839  0.35086  1.0000
  C   C62       1.0  0.30554  0.26561  0.34930  1.0000
  C   C63       1.0  0.32479  0.25039  0.37011  1.0000
  H   H47       1.0  0.31870  0.29043  0.33529  1.0000
  C   C64       1.0  0.25050  0.26526  0.35088  1.0000
  C   C65       1.0  0.26973  0.02489  0.34493  1.0000
  C   C66       1.0  0.25448  0.04504  0.35152  1.0000
  C   C67       1.0  0.27210  0.07903  0.37713  1.0000
  C   C68       1.0  0.25052  0.48875  0.34494  1.0000
  C   C69       1.0  0.26578  0.46862  0.35153  1.0000
  H   H48       1.0  0.29071  0.47869  0.34093  1.0000
  H   H49       1.0  0.30756  0.13037  0.47604  1.0000
  N   N19       1.0  0.27276  0.12232  0.29633  1.0000
  C   C70       1.0  0.27232  0.15117  0.28707  1.0000
  H   H50       1.0  0.28651  0.16727  0.23708  1.0000
  C   C71       1.0  0.30753  0.21577  0.39117  1.0000
  C   C72       1.0  0.27278  0.19626  0.37277  1.0000
  C   C73       1.0  0.25471  0.21289  0.35530  1.0000
  N   N20       1.0  0.32321  0.20089  0.43167  1.0000
  C   C74       1.0  0.26562  0.30076  0.35534  1.0000
  H   H51       1.0  0.31032  0.17920  0.45871  1.0000
  H   H52       1.0  0.29062  0.31564  0.34653  1.0000
  C   C75       1.0  0.30667  0.09394  0.39835  1.0000
  C   C76       1.0  0.32441  0.07751  0.37149  1.0000
  C   C77       1.0  0.30543  0.04362  0.34422  1.0000
  N   N21       1.0  0.32130  0.12342  0.44447  1.0000
  H   H53       1.0  0.31868  0.03224  0.32777  1.0000
  C   C78       1.0  0.26243  0.41392  0.36399  1.0000
  C   C79       1.0  0.26189  0.35217  0.35646  1.0000
  N   N22       1.0  0.27516  0.37397  0.42687  1.0000
  C   C80       1.0  0.27796  0.40487  0.43312  1.0000
  C   C81       1.0  0.28969  0.42254  0.51368  1.0000
  O   O13       1.0  0.30148  0.41196  0.56994  1.0000
  O   O14       1.0  0.30489  0.45582  0.50861  1.0000
  C   C82       1.0  0.29319  0.47041  0.57470  1.0000
  H   H54       1.0  0.30605  0.49723  0.56319  1.0000
  H   H55       1.0  0.29883  0.46607  0.64340  1.0000
  H   H56       1.0  0.26642  0.46090  0.56846  1.0000
  H   H57       1.0  0.32113  0.29602  0.59197  1.0000
  H   H58       1.0  0.31604  0.25627  0.56994  1.0000
  C   C83       1.0  0.25784  0.09975  0.36405  1.0000
  C   C84       1.0  0.25852  0.16150  0.35640  1.0000
  H   H59       1.0  0.25622  0.05531  0.57048  1.0000
  C   C85       1.0  0.26981  0.74839  0.35086  1.0000
  C   C86       1.0  0.30554  0.76561  0.34930  1.0000
  C   C87       1.0  0.32479  0.75039  0.37011  1.0000
  H   H60       1.0  0.31870  0.79043  0.33529  1.0000
  C   C88       1.0  0.25050  0.76526  0.35088  1.0000
  C   C89       1.0  0.26973  0.52489  0.34493  1.0000
  C   C90       1.0  0.25448  0.54504  0.35152  1.0000
  C   C91       1.0  0.27211  0.57903  0.37713  1.0000
  C   C92       1.0  0.25052  0.98875  0.34494  1.0000
  C   C93       1.0  0.26578  0.96862  0.35153  1.0000
  H   H61       1.0  0.29071  0.97869  0.34093  1.0000
  H   H62       1.0  0.30756  0.63037  0.47604  1.0000
  N   N23       1.0  0.27276  0.62232  0.29633  1.0000
  C   C94       1.0  0.27232  0.65117  0.28707  1.0000
  H   H63       1.0  0.28651  0.66727  0.23708  1.0000
  C   C95       1.0  0.30753  0.71577  0.39117  1.0000
  C   C96       1.0  0.27278  0.69626  0.37277  1.0000
  C   C97       1.0  0.25471  0.71288  0.35530  1.0000
  N   N24       1.0  0.32321  0.70089  0.43167  1.0000
  C   C98       1.0  0.26562  0.80076  0.35534  1.0000
  H   H64       1.0  0.31033  0.67919  0.45871  1.0000
  H   H65       1.0  0.29062  0.81564  0.34653  1.0000
  C   C99       1.0  0.30667  0.59394  0.39835  1.0000
  C   C100      1.0  0.32441  0.57751  0.37149  1.0000
  C   C101      1.0  0.30543  0.54362  0.34422  1.0000
  N   N25       1.0  0.32130  0.62342  0.44447  1.0000
  H   H66       1.0  0.31868  0.53224  0.32777  1.0000
  C   C102      1.0  0.26243  0.91392  0.36399  1.0000
  C   C103      1.0  0.26189  0.85217  0.35646  1.0000
  N   N26       1.0  0.27516  0.87396  0.42687  1.0000
  C   C104      1.0  0.27796  0.90487  0.43312  1.0000
  C   C105      1.0  0.28969  0.92254  0.51368  1.0000
  O   O15       1.0  0.30148  0.91196  0.56994  1.0000
  O   O16       1.0  0.30489  0.95582  0.50861  1.0000
  C   C106      1.0  0.29319  0.97041  0.57470  1.0000
  H   H67       1.0  0.30605  0.99723  0.56319  1.0000
  H   H68       1.0  0.29883  0.96607  0.64340  1.0000
  H   H69       1.0  0.26642  0.96090  0.56846  1.0000
  H   H70       1.0  0.32113  0.79602  0.59197  1.0000
  H   H71       1.0  0.31604  0.75627  0.56994  1.0000
  C   C107      1.0  0.25784  0.59975  0.36405  1.0000
  C   C108      1.0  0.25852  0.66150  0.35640  1.0000
  H   H72       1.0  0.25622  0.55531  0.57048  1.0000
  C   C109      1.0  0.49199  0.24759  0.33365  1.0000
  C   C110      1.0  0.47283  0.21192  0.33331  1.0000
  C   C111      1.0  0.43746  0.19299  0.33136  1.0000
  H   H73       1.0  0.48454  0.19833  0.33522  1.0000
  H   H74       1.0  0.37206  0.16868  0.33426  1.0000
  H   H75       1.0  0.34566  0.21358  0.45442  1.0000
  N   N27       1.0  0.36830  0.25944  0.27410  1.0000
  C   C112      1.0  0.39730  0.26001  0.25522  1.0000
  H   H76       1.0  0.39919  0.25064  0.19437  1.0000
  N   N28       1.0  0.40055  0.14023  0.26778  1.0000
  C   C113      1.0  0.37238  0.10982  0.27285  1.0000
  H   H77       1.0  0.35778  0.10094  0.21642  1.0000
  C   C114      1.0  0.41902  0.21016  0.32792  1.0000
  C   C115      1.0  0.43655  0.24583  0.32751  1.0000
  C   C116      1.0  0.47192  0.26317  0.33324  1.0000
  N   N29       1.0  0.38487  0.19259  0.33028  1.0000
  H   H78       1.0  0.37151  0.20308  0.33072  1.0000
  H   H79       1.0  0.48299  0.28844  0.33425  1.0000
  H   H80       1.0  0.34378  0.13379  0.46679  1.0000
  C   C117      1.0  0.35989  0.26724  0.35512  1.0000
  C   C118      1.0  0.41906  0.26390  0.32717  1.0000
  N   N30       1.0  0.41066  0.27141  0.40854  1.0000
  C   C119      1.0  0.38394  0.27575  0.42546  1.0000
  C   C120      1.0  0.37793  0.28147  0.51397  1.0000
  O   O17       1.0  0.39991  0.28871  0.57019  1.0000
  O   O18       1.0  0.36089  0.29757  0.52551  1.0000
  C   C121      1.0  0.33406  0.28180  0.58968  1.0000
  H   H81       1.0  0.34339  0.28175  0.65748  1.0000
  C   C122      1.0  0.42068  0.15752  0.33873  1.0000
  C   C123      1.0  0.35962  0.09594  0.35870  1.0000
  N   N31       1.0  0.37994  0.11318  0.42898  1.0000
  C   C124      1.0  0.41031  0.14178  0.42496  1.0000
  C   C125      1.0  0.42541  0.15720  0.50616  1.0000
  O   O19       1.0  0.41081  0.14410  0.57664  1.0000
  O   O20       1.0  0.45864  0.17103  0.50907  1.0000
  C   C126      1.0  0.47535  0.20161  0.55995  1.0000
  H   H82       1.0  0.50213  0.21176  0.55300  1.0000
  H   H83       1.0  0.46909  0.19720  0.63171  1.0000
  H   H84       1.0  0.46934  0.22016  0.53470  1.0000
  C   C127      1.0  0.49199  0.74759  0.33365  1.0000
  C   C128      1.0  0.47283  0.71192  0.33331  1.0000
  C   C129      1.0  0.43746  0.69299  0.33136  1.0000
  H   H85       1.0  0.48454  0.69833  0.33522  1.0000
  H   H86       1.0  0.37206  0.66868  0.33426  1.0000
  H   H87       1.0  0.34566  0.71358  0.45442  1.0000
  N   N32       1.0  0.36829  0.75944  0.27410  1.0000
  C   C130      1.0  0.39730  0.76001  0.25522  1.0000
  H   H88       1.0  0.39919  0.75064  0.19437  1.0000
  N   N33       1.0  0.40055  0.64023  0.26778  1.0000
  C   C131      1.0  0.37238  0.60982  0.27285  1.0000
  H   H89       1.0  0.35778  0.60094  0.21642  1.0000
  C   C132      1.0  0.41902  0.71017  0.32792  1.0000
  C   C133      1.0  0.43655  0.74583  0.32751  1.0000
  C   C134      1.0  0.47192  0.76317  0.33324  1.0000
  N   N34       1.0  0.38487  0.69259  0.33028  1.0000
  H   H90       1.0  0.37151  0.70308  0.33072  1.0000
  H   H91       1.0  0.48299  0.78844  0.33425  1.0000
  H   H92       1.0  0.34378  0.63379  0.46679  1.0000
  C   C135      1.0  0.35989  0.76724  0.35512  1.0000
  C   C136      1.0  0.41906  0.76389  0.32717  1.0000
  N   N35       1.0  0.41066  0.77141  0.40854  1.0000
  C   C137      1.0  0.38394  0.77575  0.42546  1.0000
  C   C138      1.0  0.37793  0.78146  0.51397  1.0000
  O   O21       1.0  0.39991  0.78870  0.57019  1.0000
  O   O22       1.0  0.36090  0.79758  0.52551  1.0000
  C   C139      1.0  0.33406  0.78180  0.58968  1.0000
  H   H93       1.0  0.34339  0.78175  0.65748  1.0000
  C   C140      1.0  0.42068  0.65751  0.33873  1.0000
  C   C141      1.0  0.35962  0.59594  0.35870  1.0000
  N   N36       1.0  0.37994  0.61318  0.42898  1.0000
  C   C142      1.0  0.41031  0.64178  0.42496  1.0000
  C   C143      1.0  0.42541  0.65720  0.50616  1.0000
  O   O23       1.0  0.41081  0.64410  0.57664  1.0000
  O   O24       1.0  0.45864  0.67103  0.50907  1.0000
  C   C144      1.0  0.47535  0.70161  0.55995  1.0000
  H   H94       1.0  0.50213  0.71176  0.55300  1.0000
  H   H95       1.0  0.46909  0.69720  0.63171  1.0000
  H   H96       1.0  0.46934  0.72016  0.53470  1.0000
  C   C145      1.0  0.99199  0.24759  0.33365  1.0000
  C   C146      1.0  0.97283  0.21192  0.33331  1.0000
  C   C147      1.0  0.93746  0.19299  0.33136  1.0000
  H   H97       1.0  0.98454  0.19833  0.33522  1.0000
  C   C148      1.0  0.52838  0.26613  0.33366  1.0000
  C   C149      1.0  0.58292  0.32073  0.33171  1.0000
  C   C150      1.0  0.54754  0.30179  0.33347  1.0000
  H   H98       1.0  0.53583  0.31538  0.33558  1.0000
  H   H99       1.0  0.64832  0.34504  0.33364  1.0000
  H   H100      1.0  0.87206  0.16868  0.33426  1.0000
  C   C151      1.0  0.76980  0.24839  0.35086  1.0000
  C   C152      1.0  0.80554  0.26561  0.34930  1.0000
  C   C153      1.0  0.82479  0.25039  0.37011  1.0000
  H   H101      1.0  0.81870  0.29043  0.33529  1.0000
  C   C154      1.0  0.75050  0.26526  0.35088  1.0000
  C   C155      1.0  0.69552  0.26331  0.37001  1.0000
  C   C156      1.0  0.71476  0.24806  0.34938  1.0000
  H   H102      1.0  0.70160  0.22322  0.33551  1.0000
  H   H103      1.0  0.67462  0.30028  0.45383  1.0000
  H   H104      1.0  0.84566  0.21358  0.45442  1.0000
  C   C157      1.0  0.76973  0.02489  0.34493  1.0000
  C   C158      1.0  0.75448  0.04504  0.35152  1.0000
  C   C159      1.0  0.77211  0.07903  0.37713  1.0000
  H   H105      1.0  0.72955  0.03497  0.34109  1.0000
  C   C160      1.0  0.75052  0.48875  0.34494  1.0000
  C   C161      1.0  0.74819  0.43464  0.37722  1.0000
  C   C162      1.0  0.76579  0.46862  0.35153  1.0000
  H   H106      1.0  0.79071  0.47869  0.34093  1.0000
  H   H107      1.0  0.71274  0.38326  0.47587  1.0000
  H   H108      1.0  0.80756  0.13037  0.47604  1.0000
  N   N37       1.0  0.65207  0.25413  0.27406  1.0000
  C   C163      1.0  0.62307  0.25353  0.25493  1.0000
  H   H109      1.0  0.62115  0.26294  0.19418  1.0000
  N   N38       1.0  0.74771  0.39137  0.29611  1.0000
  C   C164      1.0  0.74813  0.36251  0.28708  1.0000
  H   H110      1.0  0.73423  0.34652  0.23653  1.0000
  N   N39       1.0  0.61966  0.37344  0.26819  1.0000
  C   C165      1.0  0.64785  0.40384  0.27305  1.0000
  H   H111      1.0  0.66240  0.41273  0.21655  1.0000
  N   N40       1.0  0.86830  0.25944  0.27410  1.0000
  C   C166      1.0  0.89730  0.26001  0.25522  1.0000
  H   H112      1.0  0.89919  0.25064  0.19437  1.0000
  N   N41       1.0  0.77276  0.12232  0.29633  1.0000
  C   C167      1.0  0.77231  0.15117  0.28707  1.0000
  H   H113      1.0  0.78651  0.16727  0.23708  1.0000
  N   N42       1.0  0.90055  0.14023  0.26778  1.0000
  C   C168      1.0  0.87238  0.10982  0.27285  1.0000
  H   H114      1.0  0.85778  0.10094  0.21642  1.0000
  C   C169      1.0  0.91902  0.21016  0.32792  1.0000
  C   C170      1.0  0.93655  0.24583  0.32751  1.0000
  C   C171      1.0  0.97192  0.26317  0.33324  1.0000
  N   N43       1.0  0.88487  0.19259  0.33028  1.0000
  C   C172      1.0  0.54845  0.25055  0.33314  1.0000
  C   C173      1.0  0.58382  0.26790  0.32749  1.0000
  C   C174      1.0  0.60135  0.30356  0.32792  1.0000
  N   N44       1.0  0.63550  0.32113  0.32981  1.0000
  H   H115      1.0  0.64887  0.31064  0.32960  1.0000
  H   H116      1.0  0.87151  0.20308  0.33072  1.0000
  H   H117      1.0  0.98299  0.28844  0.33425  1.0000
  H   H118      1.0  0.53738  0.22528  0.33401  1.0000
  C   C175      1.0  0.80753  0.21577  0.39117  1.0000
  C   C176      1.0  0.77278  0.19626  0.37277  1.0000
  C   C177      1.0  0.75471  0.21289  0.35530  1.0000
  N   N45       1.0  0.82321  0.20089  0.43167  1.0000
  C   C178      1.0  0.76562  0.30076  0.35534  1.0000
  C   C179      1.0  0.74758  0.31741  0.37284  1.0000
  C   C180      1.0  0.71281  0.29794  0.39109  1.0000
  N   N46       1.0  0.69707  0.31283  0.43121  1.0000
  H   H119      1.0  0.71011  0.33444  0.45877  1.0000
  H   H120      1.0  0.81032  0.17920  0.45871  1.0000
  H   H121      1.0  0.72970  0.19800  0.34648  1.0000
  H   H122      1.0  0.79062  0.31564  0.34653  1.0000
  C   C181      1.0  0.80667  0.09394  0.39835  1.0000
  C   C182      1.0  0.82441  0.07751  0.37149  1.0000
  C   C183      1.0  0.80543  0.04362  0.34422  1.0000
  N   N47       1.0  0.82130  0.12342  0.44447  1.0000
  C   C184      1.0  0.71482  0.47000  0.34422  1.0000
  C   C185      1.0  0.69586  0.43611  0.37155  1.0000
  C   C186      1.0  0.71362  0.41969  0.39835  1.0000
  N   N48       1.0  0.69896  0.39014  0.44416  1.0000
  H   H123      1.0  0.67647  0.37967  0.46639  1.0000
  H   H124      1.0  0.84378  0.13379  0.46679  1.0000
  H   H125      1.0  0.81868  0.03224  0.32777  1.0000
  H   H126      1.0  0.70155  0.48139  0.32802  1.0000
  C   C187      1.0  0.66040  0.24639  0.35525  1.0000
  C   C188      1.0  0.60129  0.24981  0.32670  1.0000
  N   N49       1.0  0.60977  0.24248  0.40829  1.0000
  C   C189      1.0  0.63641  0.23806  0.42559  1.0000
  C   C190      1.0  0.64243  0.23262  0.51435  1.0000
  O   O25       1.0  0.62042  0.22547  0.57043  1.0000
  O   O26       1.0  0.65953  0.21661  0.52655  1.0000
  C   C191      1.0  0.68637  0.23261  0.59062  1.0000
  H   H127      1.0  0.69933  0.21844  0.59350  1.0000
  H   H128      1.0  0.67704  0.23286  0.65829  1.0000
  H   H129      1.0  0.70435  0.25810  0.57034  1.0000
  C   C192      1.0  0.76243  0.41392  0.36399  1.0000
  C   C193      1.0  0.76189  0.35217  0.35646  1.0000
  N   N50       1.0  0.77516  0.37397  0.42687  1.0000
  C   C194      1.0  0.77796  0.40487  0.43312  1.0000
  C   C195      1.0  0.78969  0.42254  0.51368  1.0000
  O   O27       1.0  0.80148  0.41196  0.56994  1.0000
  O   O28       1.0  0.80489  0.45582  0.50861  1.0000
  C   C196      1.0  0.79319  0.47041  0.57470  1.0000
  H   H130      1.0  0.80605  0.49723  0.56319  1.0000
  H   H131      1.0  0.79883  0.46607  0.64340  1.0000
  H   H132      1.0  0.76642  0.46090  0.56846  1.0000
  C   C197      1.0  0.59967  0.35621  0.33945  1.0000
  C   C198      1.0  0.66063  0.41765  0.35891  1.0000
  N   N51       1.0  0.64048  0.40054  0.42955  1.0000
  C   C199      1.0  0.61014  0.37190  0.42570  1.0000
  C   C200      1.0  0.59501  0.35658  0.50697  1.0000
  O   O29       1.0  0.60908  0.37054  0.57731  1.0000
  O   O30       1.0  0.56168  0.34084  0.51043  1.0000
  C   C201      1.0  0.54679  0.31011  0.56081  1.0000
  H   H133      1.0  0.51980  0.29844  0.55464  1.0000
  H   H134      1.0  0.55319  0.31463  0.63247  1.0000
  H   H135      1.0  0.55424  0.29276  0.53451  1.0000
  C   C202      1.0  0.85989  0.26724  0.35512  1.0000
  C   C203      1.0  0.91906  0.26390  0.32717  1.0000
  N   N52       1.0  0.91066  0.27141  0.40854  1.0000
  C   C204      1.0  0.88394  0.27575  0.42546  1.0000
  C   C205      1.0  0.87792  0.28147  0.51397  1.0000
  O   O31       1.0  0.89991  0.28871  0.57019  1.0000
  O   O32       1.0  0.86089  0.29757  0.52551  1.0000
  C   C206      1.0  0.83406  0.28180  0.58968  1.0000
  H   H136      1.0  0.82113  0.29602  0.59197  1.0000
  H   H137      1.0  0.84339  0.28175  0.65748  1.0000
  H   H138      1.0  0.81604  0.25627  0.56994  1.0000
  C   C207      1.0  0.75784  0.09975  0.36405  1.0000
  C   C208      1.0  0.75852  0.16150  0.35640  1.0000
  N   N53       1.0  0.74510  0.13968  0.42671  1.0000
  C   C209      1.0  0.74223  0.10874  0.43301  1.0000
  C   C210      1.0  0.73035  0.09115  0.51347  1.0000
  O   O33       1.0  0.71687  0.10067  0.56759  1.0000
  O   O34       1.0  0.71639  0.05792  0.51032  1.0000
  C   C211      1.0  0.72931  0.04481  0.57730  1.0000
  H   H139      1.0  0.71739  0.01795  0.56744  1.0000
  H   H140      1.0  0.72360  0.04935  0.64571  1.0000
  H   H141      1.0  0.75622  0.05531  0.57048  1.0000
  C   C212      1.0  0.92068  0.15752  0.33873  1.0000
  C   C213      1.0  0.85962  0.09594  0.35870  1.0000
  N   N54       1.0  0.87994  0.11318  0.42898  1.0000
  C   C214      1.0  0.91031  0.14178  0.42496  1.0000
  C   C215      1.0  0.92541  0.15720  0.50616  1.0000
  O   O35       1.0  0.91081  0.14410  0.57664  1.0000
  O   O36       1.0  0.95864  0.17103  0.50907  1.0000
  C   C216      1.0  0.97535  0.20161  0.55995  1.0000
  H   H142      1.0  0.00213  0.21176  0.55300  1.0000
  H   H143      1.0  0.96909  0.19720  0.63171  1.0000
  H   H144      1.0  0.96934  0.22016  0.53470  1.0000
  C   C217      1.0  0.99199  0.74759  0.33365  1.0000
  C   C218      1.0  0.97283  0.71192  0.33331  1.0000
  C   C219      1.0  0.93746  0.69299  0.33136  1.0000
  H   H145      1.0  0.98454  0.69833  0.33522  1.0000
  C   C220      1.0  0.52838  0.76613  0.33366  1.0000
  C   C221      1.0  0.58292  0.82073  0.33171  1.0000
  C   C222      1.0  0.54754  0.80179  0.33347  1.0000
  H   H146      1.0  0.53583  0.81538  0.33558  1.0000
  H   H147      1.0  0.64832  0.84503  0.33364  1.0000
  H   H148      1.0  0.87206  0.66868  0.33426  1.0000
  C   C223      1.0  0.76981  0.74839  0.35086  1.0000
  C   C224      1.0  0.80554  0.76561  0.34930  1.0000
  C   C225      1.0  0.82479  0.75039  0.37011  1.0000
  H   H149      1.0  0.81870  0.79043  0.33529  1.0000
  C   C226      1.0  0.75050  0.76526  0.35088  1.0000
  C   C227      1.0  0.69552  0.76331  0.37001  1.0000
  C   C228      1.0  0.71476  0.74806  0.34938  1.0000
  H   H150      1.0  0.70160  0.72322  0.33551  1.0000
  H   H151      1.0  0.67462  0.80028  0.45383  1.0000
  H   H152      1.0  0.84566  0.71358  0.45442  1.0000
  C   C229      1.0  0.76973  0.52489  0.34493  1.0000
  C   C230      1.0  0.75448  0.54504  0.35152  1.0000
  C   C231      1.0  0.77211  0.57903  0.37713  1.0000
  H   H153      1.0  0.72955  0.53496  0.34109  1.0000
  C   C232      1.0  0.75052  0.98875  0.34494  1.0000
  C   C233      1.0  0.74819  0.93463  0.37722  1.0000
  C   C234      1.0  0.76578  0.96862  0.35153  1.0000
  H   H154      1.0  0.79071  0.97869  0.34093  1.0000
  H   H155      1.0  0.71274  0.88326  0.47587  1.0000
  H   H156      1.0  0.80756  0.63037  0.47604  1.0000
  N   N55       1.0  0.65207  0.75413  0.27406  1.0000
  C   C235      1.0  0.62307  0.75353  0.25493  1.0000
  H   H157      1.0  0.62115  0.76294  0.19418  1.0000
  N   N56       1.0  0.74771  0.89137  0.29611  1.0000
  C   C236      1.0  0.74813  0.86251  0.28708  1.0000
  H   H158      1.0  0.73422  0.84652  0.23653  1.0000
  N   N57       1.0  0.61966  0.87344  0.26819  1.0000
  C   C237      1.0  0.64785  0.90384  0.27305  1.0000
  H   H159      1.0  0.66240  0.91273  0.21655  1.0000
  N   N58       1.0  0.86830  0.75944  0.27410  1.0000
  C   C238      1.0  0.89730  0.76001  0.25522  1.0000
  H   H160      1.0  0.89919  0.75064  0.19437  1.0000
  N   N59       1.0  0.77276  0.62232  0.29633  1.0000
  C   C239      1.0  0.77232  0.65117  0.28707  1.0000
  H   H161      1.0  0.78651  0.66727  0.23708  1.0000
  N   N60       1.0  0.90055  0.64023  0.26778  1.0000
  C   C240      1.0  0.87238  0.60982  0.27285  1.0000
  H   H162      1.0  0.85778  0.60094  0.21642  1.0000
  C   C241      1.0  0.91902  0.71017  0.32792  1.0000
  C   C242      1.0  0.93655  0.74583  0.32751  1.0000
  C   C243      1.0  0.97192  0.76317  0.33324  1.0000
  N   N61       1.0  0.88487  0.69259  0.33028  1.0000
  C   C244      1.0  0.54845  0.75055  0.33314  1.0000
  C   C245      1.0  0.58382  0.76790  0.32749  1.0000
  C   C246      1.0  0.60135  0.80356  0.32792  1.0000
  N   N62       1.0  0.63550  0.82113  0.32981  1.0000
  H   H163      1.0  0.64887  0.81064  0.32960  1.0000
  H   H164      1.0  0.87151  0.70308  0.33072  1.0000
  H   H165      1.0  0.98299  0.78844  0.33425  1.0000
  H   H166      1.0  0.53738  0.72528  0.33401  1.0000
  C   C247      1.0  0.80753  0.71577  0.39117  1.0000
  C   C248      1.0  0.77278  0.69626  0.37277  1.0000
  C   C249      1.0  0.75471  0.71288  0.35530  1.0000
  N   N63       1.0  0.82321  0.70089  0.43167  1.0000
  C   C250      1.0  0.76562  0.80076  0.35534  1.0000
  C   C251      1.0  0.74758  0.81741  0.37284  1.0000
  C   C252      1.0  0.71281  0.79794  0.39109  1.0000
  N   N64       1.0  0.69707  0.81283  0.43121  1.0000
  H   H167      1.0  0.71011  0.83444  0.45877  1.0000
  H   H168      1.0  0.81032  0.67919  0.45871  1.0000
  H   H169      1.0  0.72970  0.69800  0.34648  1.0000
  H   H170      1.0  0.79062  0.81564  0.34653  1.0000
  C   C253      1.0  0.80667  0.59394  0.39835  1.0000
  C   C254      1.0  0.82441  0.57751  0.37149  1.0000
  C   C255      1.0  0.80543  0.54362  0.34422  1.0000
  N   N65       1.0  0.82130  0.62342  0.44447  1.0000
  C   C256      1.0  0.71482  0.97000  0.34422  1.0000
  C   C257      1.0  0.69586  0.93611  0.37155  1.0000
  C   C258      1.0  0.71362  0.91969  0.39835  1.0000
  N   N66       1.0  0.69896  0.89014  0.44416  1.0000
  H   H171      1.0  0.67647  0.87967  0.46639  1.0000
  H   H172      1.0  0.84378  0.63379  0.46679  1.0000
  H   H173      1.0  0.81868  0.53224  0.32777  1.0000
  H   H174      1.0  0.70155  0.98139  0.32802  1.0000
  C   C259      1.0  0.66040  0.74639  0.35525  1.0000
  C   C260      1.0  0.60129  0.74982  0.32670  1.0000
  N   N67       1.0  0.60977  0.74248  0.40829  1.0000
  C   C261      1.0  0.63641  0.73806  0.42559  1.0000
  C   C262      1.0  0.64243  0.73262  0.51435  1.0000
  O   O37       1.0  0.62043  0.72547  0.57043  1.0000
  O   O38       1.0  0.65953  0.71661  0.52655  1.0000
  C   C263      1.0  0.68637  0.73261  0.59062  1.0000
  H   H175      1.0  0.69933  0.71844  0.59350  1.0000
  H   H176      1.0  0.67704  0.73286  0.65829  1.0000
  H   H177      1.0  0.70435  0.75809  0.57034  1.0000
  C   C264      1.0  0.76243  0.91392  0.36399  1.0000
  C   C265      1.0  0.76189  0.85217  0.35646  1.0000
  N   N68       1.0  0.77516  0.87396  0.42687  1.0000
  C   C266      1.0  0.77796  0.90487  0.43312  1.0000
  C   C267      1.0  0.78969  0.92254  0.51368  1.0000
  O   O39       1.0  0.80148  0.91196  0.56994  1.0000
  O   O40       1.0  0.80489  0.95582  0.50861  1.0000
  C   C268      1.0  0.79319  0.97041  0.57470  1.0000
  H   H178      1.0  0.80605  0.99723  0.56319  1.0000
  H   H179      1.0  0.79883  0.96607  0.64340  1.0000
  H   H180      1.0  0.76642  0.96090  0.56846  1.0000
  C   C269      1.0  0.59967  0.85621  0.33945  1.0000
  C   C270      1.0  0.66063  0.91765  0.35891  1.0000
  N   N69       1.0  0.64048  0.90054  0.42955  1.0000
  C   C271      1.0  0.61014  0.87190  0.42570  1.0000
  C   C272      1.0  0.59501  0.85658  0.50697  1.0000
  O   O41       1.0  0.60908  0.87054  0.57731  1.0000
  O   O42       1.0  0.56168  0.84084  0.51043  1.0000
  C   C273      1.0  0.54679  0.81011  0.56081  1.0000
  H   H181      1.0  0.51980  0.79844  0.55464  1.0000
  H   H182      1.0  0.55319  0.81463  0.63247  1.0000
  H   H183      1.0  0.55424  0.79276  0.53451  1.0000
  C   C274      1.0  0.85989  0.76724  0.35512  1.0000
  C   C275      1.0  0.91906  0.76389  0.32717  1.0000
  N   N70       1.0  0.91066  0.77141  0.40854  1.0000
  C   C276      1.0  0.88394  0.77575  0.42546  1.0000
  C   C277      1.0  0.87792  0.78146  0.51397  1.0000
  O   O43       1.0  0.89991  0.78870  0.57019  1.0000
  O   O44       1.0  0.86089  0.79758  0.52551  1.0000
  C   C278      1.0  0.83406  0.78180  0.58968  1.0000
  H   H184      1.0  0.82113  0.79602  0.59197  1.0000
  H   H185      1.0  0.84339  0.78175  0.65748  1.0000
  H   H186      1.0  0.81604  0.75627  0.56994  1.0000
  C   C279      1.0  0.75784  0.59975  0.36405  1.0000
  C   C280      1.0  0.75851  0.66150  0.35640  1.0000
  N   N71       1.0  0.74510  0.63968  0.42671  1.0000
  C   C281      1.0  0.74223  0.60874  0.43301  1.0000
  C   C282      1.0  0.73035  0.59115  0.51347  1.0000
  O   O45       1.0  0.71687  0.60067  0.56759  1.0000
  O   O46       1.0  0.71639  0.55792  0.51032  1.0000
  C   C283      1.0  0.72931  0.54481  0.57730  1.0000
  H   H187      1.0  0.71739  0.51795  0.56744  1.0000
  H   H188      1.0  0.72359  0.54935  0.64571  1.0000
  H   H189      1.0  0.75622  0.55531  0.57048  1.0000
  C   C284      1.0  0.92068  0.65751  0.33873  1.0000
  C   C285      1.0  0.85962  0.59594  0.35870  1.0000
  N   N72       1.0  0.87994  0.61318  0.42898  1.0000
  C   C286      1.0  0.91031  0.64178  0.42496  1.0000
  C   C287      1.0  0.92541  0.65720  0.50616  1.0000
  O   O47       1.0  0.91081  0.64410  0.57664  1.0000
  O   O48       1.0  0.95864  0.67103  0.50907  1.0000
  C   C288      1.0  0.97535  0.70161  0.55995  1.0000
  H   H190      1.0  0.00213  0.71176  0.55300  1.0000
  H   H191      1.0  0.96909  0.69720  0.63171  1.0000
  H   H192      1.0  0.96933  0.72016  0.53470  1.0000
