data_image0
_chemical_formula_structural       C2NCNO2C2NCNO2C2NCNO2C2NCNO2C2NCNO2C2NCNO2NCHNCHNCHNCHNCHNCHNCHNCHNCHNCHNCHNCHC2NCNO2C2NCNO2C2NCNO2C2NCNO2C2NCNO2C2NCNO2NCHNCHNCHNCHNCHNCHNCHNCHNCHNCHNCHNCHC2NCNO2C2NCNO2C2NCNO2C2NCNO2C2NCNO2C2NCNO2NCHNCHNCHNCHNCHNCHC2NCNO2C2NCNO2C2NCNO2C2NCNO2C2NCNO2C2NCNO2CNCNCNCNCNCNCNCNCNCNCNCNCNCNCNCNCNCNCNCNCNCNCNCNCNCNCNCNCNCNCNCNCNCNCNCNCNCNCNCNCNCNCNCNCNCNCNCNCNCNCNCNCNCNCNCNCNCNCNCNCNCNCNCNCNCNCNCNCNCNCNCNCNCNCNCNCNCNCNCNCNCNCNCNCNCNCNCNCNCNCNCNCNCNCNCNCNCNCNCNCNCNCNCNCNCNCNCN2CHNCHNCHNCHNCHNCHC2NCNO2C2NCNO2C2NCNO2C2NCNO2C2NCNO2C2NCNO2C2NCNO2C2NCNO2C2NCNO2C2NCNO2C2NCNO2C2NCNO2NCHNCHNCHNCHNCHNCHC2NCNO2C2NCNO2C2NCNO2C2NCNO2C2NCNO2C2NCNO2C2NCNO2C2NCNO2C2NCNO2C2NCNO2C2NCNO2C2NCNO2NCHNCHNCHNCHNCHNCHC2NCNO2C2NCNO2C2NCNO2C2NCNO2C2NCNO2C2NCNO2NCHNCHNCHNCHNCHNCH
_chemical_formula_sum              "C324 N270 O108 H54"
_cell_length_a       66.5191
_cell_length_b       66.519
_cell_length_c       14.8635
_cell_angle_alpha    90
_cell_angle_beta     90
_cell_angle_gamma    120

_space_group_name_H-M_alt    "P 1"
_space_group_IT_number       1

loop_
  _space_group_symop_operation_xyz
  'x, y, z'

loop_
  _atom_site_type_symbol
  _atom_site_label
  _atom_site_symmetry_multiplicity
  _atom_site_fract_x
  _atom_site_fract_y
  _atom_site_fract_z
  _atom_site_occupancy
  C   C1        1.0  0.15072  0.37299  0.25176  1.0000
  C   C2        1.0  0.14819  0.32919  0.25825  1.0000
  N   N1        1.0  0.16712  0.34887  0.22896  1.0000
  C   C3        1.0  0.16933  0.37008  0.22082  1.0000
  N   N2        1.0  0.19046  0.38830  0.18656  1.0000
  O   O1        1.0  0.20736  0.39110  0.23381  1.0000
  O   O2        1.0  0.19368  0.38388  0.10745  1.0000
  C   C4        1.0  0.63687  0.77915  0.24846  1.0000
  C   C5        1.0  0.68058  0.82040  0.25646  1.0000
  N   N3        1.0  0.66097  0.81970  0.22662  1.0000
  C   C6        1.0  0.63980  0.80069  0.21766  1.0000
  N   N4        1.0  0.62160  0.80358  0.18310  1.0000
  O   O3        1.0  0.61869  0.81760  0.23044  1.0000
  O   O4        1.0  0.62615  0.81133  0.10417  1.0000
  C   C7        1.0  0.23143  0.85884  0.24973  1.0000
  C   C8        1.0  0.19034  0.86155  0.25865  1.0000
  N   N5        1.0  0.19085  0.84250  0.22919  1.0000
  C   C9        1.0  0.20978  0.84022  0.21989  1.0000
  N   N6        1.0  0.20673  0.81901  0.18598  1.0000
  O   O5        1.0  0.19278  0.80222  0.23405  1.0000
  O   O6        1.0  0.19881  0.81564  0.10729  1.0000
  C   C10       1.0  0.86421  0.63783  0.26261  1.0000
  C   C11       1.0  0.86604  0.68131  0.26339  1.0000
  N   N7        1.0  0.84746  0.66138  0.23365  1.0000
  C   C12       1.0  0.84562  0.64029  0.22819  1.0000
  N   N8        1.0  0.82490  0.62167  0.19299  1.0000
  O   O7        1.0  0.80755  0.61879  0.23739  1.0000
  O   O8        1.0  0.82216  0.62564  0.11263  1.0000
  C   C13       1.0  0.37586  0.22902  0.25124  1.0000
  C   C14       1.0  0.33204  0.18777  0.25715  1.0000
  N   N9        1.0  0.35171  0.18852  0.22787  1.0000
  C   C15       1.0  0.37295  0.20751  0.22004  1.0000
  N   N10       1.0  0.39118  0.20461  0.18583  1.0000
  O   O9        1.0  0.39393  0.19046  0.23295  1.0000
  O   O10       1.0  0.38680  0.19705  0.10662  1.0000
  C   C16       1.0  0.78209  0.14919  0.24903  1.0000
  C   C17       1.0  0.82331  0.14664  0.25646  1.0000
  N   N11       1.0  0.82264  0.16562  0.22724  1.0000
  C   C18       1.0  0.80365  0.16784  0.21863  1.0000
  N   N12       1.0  0.80661  0.18902  0.18476  1.0000
  O   O11       1.0  0.82061  0.20584  0.23257  1.0000
  O   O12       1.0  0.81439  0.19237  0.10587  1.0000
  N   N13       1.0  0.35335  0.11512  0.34772  1.0000
  C   C19       1.0  0.33169  0.11052  0.32385  1.0000
  H   H1        1.0  0.32526  0.10290  0.26278  1.0000
  N   N14       1.0  0.77085  0.65880  0.34417  1.0000
  C   C20       1.0  0.78780  0.68049  0.32014  1.0000
  H   H2        1.0  0.78674  0.68683  0.25867  1.0000
  N   N15       1.0  0.89567  0.24045  0.35015  1.0000
  C   C21       1.0  0.90051  0.22356  0.32640  1.0000
  H   H3        1.0  0.90853  0.22498  0.26607  1.0000
  N   N16       1.0  0.65928  0.89297  0.35118  1.0000
  C   C22       1.0  0.68098  0.89774  0.32728  1.0000
  H   H4        1.0  0.68741  0.90549  0.26640  1.0000
  N   N17       1.0  0.24215  0.35048  0.35049  1.0000
  C   C23       1.0  0.22510  0.32883  0.32649  1.0000
  H   H5        1.0  0.22634  0.32238  0.26554  1.0000
  N   N18       1.0  0.11791  0.76813  0.35643  1.0000
  C   C24       1.0  0.11331  0.78519  0.33283  1.0000
  H   H6        1.0  0.10533  0.78385  0.27248  1.0000
  N   N19       1.0  0.22483  0.45006  0.33890  1.0000
  C   C25       1.0  0.24433  0.44914  0.35852  1.0000
  H   H7        1.0  0.25782  0.45616  0.31373  1.0000
  N   N20       1.0  0.55992  0.77598  0.33510  1.0000
  C   C26       1.0  0.56074  0.79633  0.35539  1.0000
  H   H8        1.0  0.55407  0.80301  0.31003  1.0000
  N   N21       1.0  0.23462  0.78523  0.33907  1.0000
  C   C27       1.0  0.21427  0.76573  0.35971  1.0000
  H   H9        1.0  0.20759  0.75240  0.31427  1.0000
  N   N22       1.0  0.79005  0.56026  0.35316  1.0000
  C   C28       1.0  0.77010  0.56063  0.36955  1.0000
  H   H10       1.0  0.75689  0.55308  0.32374  1.0000
  N   N23       1.0  0.45297  0.23202  0.33844  1.0000
  C   C29       1.0  0.45207  0.21158  0.35767  1.0000
  H   H11       1.0  0.45910  0.20517  0.31272  1.0000
  N   N24       1.0  0.77863  0.22283  0.33656  1.0000
  C   C30       1.0  0.79892  0.24240  0.35717  1.0000
  H   H12       1.0  0.80558  0.25578  0.31198  1.0000
  C   C31       1.0  0.13061  0.43393  0.33035  1.0000
  C   C32       1.0  0.10532  0.45772  0.33595  1.0000
  N   N25       1.0  0.09489  0.43433  0.32303  1.0000
  C   C33       1.0  0.10617  0.42188  0.31898  1.0000
  N   N26       1.0  0.09355  0.39771  0.30504  1.0000
  O   O13       1.0  0.07890  0.38799  0.36667  1.0000
  O   O14       1.0  0.08287  0.39317  0.23147  1.0000
  C   C34       1.0  0.57611  0.69803  0.32654  1.0000
  C   C35       1.0  0.55244  0.64896  0.33243  1.0000
  N   N27       1.0  0.57583  0.66197  0.31944  1.0000
  C   C36       1.0  0.58821  0.68569  0.31524  1.0000
  N   N28       1.0  0.61239  0.69730  0.30129  1.0000
  O   O15       1.0  0.62214  0.69243  0.36300  1.0000
  O   O16       1.0  0.61695  0.69115  0.22781  1.0000
  C   C37       1.0  0.31250  0.87924  0.32673  1.0000
  C   C38       1.0  0.36153  0.90478  0.33240  1.0000
  N   N29       1.0  0.34847  0.91509  0.31923  1.0000
  C   C39       1.0  0.32475  0.90367  0.31504  1.0000
  N   N30       1.0  0.31306  0.91615  0.30100  1.0000
  O   O17       1.0  0.31790  0.93080  0.36257  1.0000
  O   O18       1.0  0.31915  0.92682  0.22740  1.0000
  C   C40       1.0  0.88321  0.57592  0.33888  1.0000
  C   C41       1.0  0.90775  0.55132  0.33950  1.0000
  N   N31       1.0  0.91842  0.57470  0.32582  1.0000
  C   C42       1.0  0.90753  0.58753  0.32428  1.0000
  N   N32       1.0  0.92045  0.61165  0.30940  1.0000
  O   O19       1.0  0.93569  0.62126  0.36912  1.0000
  O   O20       1.0  0.93043  0.61584  0.23440  1.0000
  C   C43       1.0  0.43680  0.31002  0.32990  1.0000
  C   C44       1.0  0.46072  0.35911  0.33306  1.0000
  N   N33       1.0  0.43737  0.34617  0.31899  1.0000
  C   C45       1.0  0.42486  0.32244  0.31630  1.0000
  N   N34       1.0  0.40075  0.31093  0.30092  1.0000
  O   O21       1.0  0.39085  0.31610  0.36104  1.0000
  O   O22       1.0  0.39651  0.31687  0.22631  1.0000
  C   C46       1.0  0.70090  0.12865  0.32689  1.0000
  C   C47       1.0  0.65183  0.10330  0.33193  1.0000
  N   N35       1.0  0.66481  0.09295  0.31770  1.0000
  C   C48       1.0  0.68854  0.10426  0.31400  1.0000
  N   N36       1.0  0.70013  0.09174  0.29864  1.0000
  O   O23       1.0  0.69518  0.07683  0.35924  1.0000
  O   O24       1.0  0.69405  0.08138  0.22443  1.0000
  N   N37       1.0  0.45940  0.13717  0.35400  1.0000
  C   C49       1.0  0.47290  0.12724  0.34569  1.0000
  H   H13       1.0  0.49053  0.13741  0.35064  1.0000
  N   N38       1.0  0.68749  0.55213  0.35528  1.0000
  C   C50       1.0  0.66409  0.53841  0.34669  1.0000
  H   H14       1.0  0.65675  0.52083  0.35318  1.0000
  N   N39       1.0  0.87310  0.32418  0.35637  1.0000
  C   C51       1.0  0.88298  0.34761  0.34804  1.0000
  H   H15       1.0  0.87275  0.35502  0.35225  1.0000
  N   N40       1.0  0.55343  0.87070  0.35471  1.0000
  C   C52       1.0  0.53998  0.88064  0.34585  1.0000
  H   H16       1.0  0.52234  0.87048  0.35036  1.0000
  N   N41       1.0  0.32599  0.45656  0.35532  1.0000
  C   C53       1.0  0.34935  0.47014  0.34559  1.0000
  H   H17       1.0  0.35670  0.48779  0.34916  1.0000
  N   N42       1.0  0.13996  0.68428  0.35832  1.0000
  C   C54       1.0  0.13006  0.66091  0.34828  1.0000
  H   H18       1.0  0.14027  0.65346  0.35153  1.0000
  N   N43       1.0  0.09443  0.21200  0.32302  1.0000
  C   C55       1.0  0.10557  0.23566  0.31980  1.0000
  H   H19       1.0  0.09646  0.24371  0.30237  1.0000
  N   N44       1.0  0.79775  0.88402  0.32155  1.0000
  C   C56       1.0  0.77411  0.87141  0.31840  1.0000
  H   H20       1.0  0.76610  0.85425  0.30122  1.0000
  N   N45       1.0  0.12785  0.91606  0.32512  1.0000
  C   C57       1.0  0.14030  0.90485  0.32177  1.0000
  H   H21       1.0  0.15724  0.91370  0.30142  1.0000
  N   N46       1.0  0.88824  0.79986  0.35323  1.0000
  C   C58       1.0  0.87396  0.77654  0.35376  1.0000
  H   H22       1.0  0.85660  0.77025  0.36313  1.0000
  N   N47       1.0  0.21483  0.12436  0.32311  1.0000
  C   C59       1.0  0.23849  0.13690  0.31952  1.0000
  H   H23       1.0  0.24652  0.15402  0.30168  1.0000
  N   N48       1.0  0.88640  0.09259  0.32177  1.0000
  C   C60       1.0  0.87395  0.10380  0.31849  1.0000
  H   H24       1.0  0.85680  0.09476  0.30103  1.0000
  C   C61       1.0  0.09858  0.56987  0.32778  1.0000
  C   C62       1.0  0.09725  0.52705  0.33878  1.0000
  N   N49       1.0  0.09345  0.53511  0.26032  1.0000
  C   C63       1.0  0.09466  0.55608  0.24971  1.0000
  N   N50       1.0  0.08891  0.56234  0.16648  1.0000
  O   O25       1.0  0.08030  0.54617  0.10967  1.0000
  O   O26       1.0  0.10710  0.57838  0.13189  1.0000
  C   C64       1.0  0.44020  0.53025  0.33135  1.0000
  C   C65       1.0  0.48327  0.57156  0.34252  1.0000
  N   N51       1.0  0.47392  0.56114  0.26257  1.0000
  C   C66       1.0  0.45276  0.54155  0.25232  1.0000
  N   N52       1.0  0.44518  0.53089  0.16699  1.0000
  O   O27       1.0  0.46053  0.53924  0.10687  1.0000
  O   O28       1.0  0.42885  0.53376  0.14083  1.0000
  C   C67       1.0  0.48042  0.91183  0.33946  1.0000
  C   C68       1.0  0.43894  0.91325  0.34818  1.0000
  N   N53       1.0  0.44887  0.91301  0.26854  1.0000
  C   C69       1.0  0.46854  0.91152  0.25971  1.0000
  N   N54       1.0  0.47880  0.91331  0.17441  1.0000
  O   O29       1.0  0.47057  0.91999  0.11267  1.0000
  O   O30       1.0  0.47527  0.89361  0.15206  1.0000
  C   C70       1.0  0.91534  0.43912  0.33155  1.0000
  C   C71       1.0  0.91529  0.48136  0.33326  1.0000
  N   N55       1.0  0.92049  0.47321  0.25814  1.0000
  C   C72       1.0  0.91996  0.45248  0.25179  1.0000
  N   N56       1.0  0.92700  0.44609  0.17185  1.0000
  O   O31       1.0  0.93607  0.46206  0.11430  1.0000
  O   O32       1.0  0.90943  0.42970  0.13530  1.0000
  C   C73       1.0  0.57268  0.47877  0.32961  1.0000
  C   C74       1.0  0.53025  0.43667  0.33074  1.0000
  N   N57       1.0  0.53887  0.44972  0.25510  1.0000
  C   C75       1.0  0.55973  0.46981  0.24910  1.0000
  N   N58       1.0  0.56659  0.48294  0.16844  1.0000
  O   O33       1.0  0.55096  0.47588  0.10946  1.0000
  O   O34       1.0  0.58314  0.48155  0.13446  1.0000
  C   C76       1.0  0.53212  0.09530  0.34084  1.0000
  C   C77       1.0  0.57437  0.09523  0.34303  1.0000
  N   N59       1.0  0.56328  0.09447  0.26512  1.0000
  C   C78       1.0  0.54324  0.09538  0.25929  1.0000
  N   N60       1.0  0.53198  0.09276  0.17569  1.0000
  O   O35       1.0  0.53936  0.08530  0.11363  1.0000
  O   O36       1.0  0.53542  0.11228  0.15110  1.0000
  N   N61       1.0  0.99298  0.42041  0.32279  1.0000
  C   C79       1.0  0.01646  0.43015  0.32090  1.0000
  H   H25       1.0  0.02368  0.42165  0.28912  1.0000
  N   N62       1.0  0.59053  0.57477  0.32093  1.0000
  C   C80       1.0  0.58052  0.58826  0.31912  1.0000
  H   H26       1.0  0.58892  0.60406  0.28785  1.0000
  N   N63       1.0  0.43600  0.01724  0.32308  1.0000
  C   C81       1.0  0.42239  0.99375  0.32097  1.0000
  H   H27       1.0  0.40676  0.98645  0.28836  1.0000
  N   N64       1.0  0.02007  0.58893  0.32160  1.0000
  C   C82       1.0  0.99657  0.57934  0.32146  1.0000
  H   H28       1.0  0.98946  0.58953  0.30796  1.0000
  N   N65       1.0  0.42216  0.43308  0.31773  1.0000
  C   C83       1.0  0.43197  0.41937  0.31704  1.0000
  H   H29       1.0  0.42191  0.40206  0.30312  1.0000
  N   N66       1.0  0.57761  0.99067  0.32434  1.0000
  C   C84       1.0  0.59138  0.01418  0.32310  1.0000
  H   H30       1.0  0.60848  0.02136  0.30571  1.0000
  C   C85       1.0  0.12968  0.10345  0.33839  1.0000
  C   C86       1.0  0.10263  0.12552  0.33870  1.0000
  N   N67       1.0  0.12625  0.13760  0.33931  1.0000
  C   C87       1.0  0.14025  0.12804  0.33917  1.0000
  N   N68       1.0  0.16453  0.14279  0.33992  1.0000
  O   O37       1.0  0.17071  0.15544  0.40875  1.0000
  O   O38       1.0  0.17097  0.15570  0.27183  1.0000
  C   C88       1.0  0.90659  0.02790  0.33676  1.0000
  C   C89       1.0  0.88421  0.97877  0.33732  1.0000
  N   N69       1.0  0.87226  0.99044  0.33754  1.0000
  C   C90       1.0  0.88199  0.01403  0.33727  1.0000
  N   N70       1.0  0.86739  0.02374  0.33756  1.0000
  O   O39       1.0  0.85469  0.01739  0.40622  1.0000
  O   O40       1.0  0.85455  0.01734  0.26930  1.0000
  C   C91       1.0  0.98412  0.88534  0.34003  1.0000
  C   C92       1.0  0.03320  0.90798  0.34178  1.0000
  N   N71       1.0  0.02152  0.91989  0.34026  1.0000
  C   C93       1.0  0.99789  0.90998  0.33939  1.0000
  N   N72       1.0  0.98804  0.92445  0.33785  1.0000
  O   O41       1.0  0.99445  0.93707  0.26899  1.0000
  O   O42       1.0  0.99415  0.93734  0.40595  1.0000
  C   C94       1.0  0.88256  0.90464  0.33750  1.0000
  C   C95       1.0  0.90974  0.88275  0.33919  1.0000
  N   N73       1.0  0.88612  0.87051  0.33835  1.0000
  C   C96       1.0  0.87207  0.88004  0.33753  1.0000
  N   N74       1.0  0.84779  0.86533  0.33665  1.0000
  O   O43       1.0  0.84129  0.85254  0.40505  1.0000
  O   O44       1.0  0.84163  0.85260  0.26809  1.0000
  C   C97       1.0  0.10690  0.98045  0.34044  1.0000
  C   C98       1.0  0.12866  0.02954  0.34011  1.0000
  N   N75       1.0  0.14089  0.01815  0.34110  1.0000
  C   C99       1.0  0.13148  0.99460  0.34129  1.0000
  N   N76       1.0  0.14635  0.98522  0.34241  1.0000
  O   O45       1.0  0.15898  0.99181  0.41129  1.0000
  O   O46       1.0  0.15928  0.99172  0.27438  1.0000
  C   C100      1.0  0.03001  0.12708  0.33756  1.0000
  C   C101      1.0  0.98088  0.10030  0.33788  1.0000
  N   N77       1.0  0.99255  0.12392  0.33857  1.0000
  C   C102      1.0  0.01613  0.13780  0.33843  1.0000
  N   N78       1.0  0.02580  0.16210  0.33926  1.0000
  O   O47       1.0  0.01942  0.16834  0.40814  1.0000
  O   O48       1.0  0.01940  0.16862  0.27122  1.0000
  C   C103      1.0  0.18422  0.43152  0.33851  1.0000
  N   N79       1.0  0.16792  0.43771  0.35216  1.0000
  C   C104      1.0  0.14545  0.42421  0.32416  1.0000
  N   N80       1.0  0.13890  0.40258  0.28970  1.0000
  C   C105      1.0  0.15463  0.39535  0.27551  1.0000
  N   N81       1.0  0.17659  0.41033  0.30255  1.0000
  C   C106      1.0  0.57827  0.75390  0.33448  1.0000
  N   N82       1.0  0.57220  0.73147  0.34834  1.0000
  C   C107      1.0  0.58576  0.72257  0.32040  1.0000
  N   N83       1.0  0.60738  0.73771  0.28602  1.0000
  C   C108      1.0  0.61452  0.76065  0.27187  1.0000
  N   N84       1.0  0.59948  0.76757  0.29877  1.0000
  C   C109      1.0  0.25659  0.82562  0.33775  1.0000
  N   N85       1.0  0.27911  0.84193  0.35034  1.0000
  C   C110      1.0  0.28797  0.86430  0.32128  1.0000
  N   N86       1.0  0.27281  0.87071  0.28670  1.0000
  C   C111      1.0  0.24985  0.85491  0.27351  1.0000
  N   N87       1.0  0.24288  0.83302  0.30148  1.0000
  C   C112      1.0  0.83071  0.58014  0.35609  1.0000
  N   N88       1.0  0.84644  0.57305  0.36564  1.0000
  C   C113      1.0  0.86878  0.58616  0.33556  1.0000
  N   N89       1.0  0.87560  0.60787  0.30111  1.0000
  C   C114      1.0  0.86021  0.61565  0.28968  1.0000
  N   N90       1.0  0.83841  0.60128  0.31976  1.0000
  C   C115      1.0  0.43435  0.25399  0.33844  1.0000
  N   N91       1.0  0.44055  0.27648  0.35209  1.0000
  C   C116      1.0  0.42706  0.28545  0.32405  1.0000
  N   N92       1.0  0.40545  0.27038  0.28942  1.0000
  C   C117      1.0  0.39822  0.24743  0.27523  1.0000
  N   N93       1.0  0.41317  0.24043  0.30235  1.0000
  C   C118      1.0  0.75671  0.18240  0.33535  1.0000
  N   N94       1.0  0.73428  0.16600  0.34906  1.0000
  C   C119      1.0  0.72544  0.14356  0.32090  1.0000
  N   N95       1.0  0.74063  0.13715  0.28643  1.0000
  C   C120      1.0  0.76356  0.15300  0.27249  1.0000
  N   N96       1.0  0.77043  0.17493  0.29961  1.0000
  C   C121      1.0  0.42577  0.17272  0.42189  1.0000
  N   N97       1.0  0.43598  0.16107  0.38720  1.0000
  C   C122      1.0  0.42380  0.13767  0.37254  1.0000
  N   N98       1.0  0.40034  0.12652  0.38598  1.0000
  C   C123      1.0  0.38941  0.13734  0.42166  1.0000
  N   N99       1.0  0.40271  0.16030  0.43945  1.0000
  C   C124      1.0  0.75653  0.58677  0.42674  1.0000
  N   N100      1.0  0.73477  0.57614  0.39090  1.0000
  C   C125      1.0  0.72342  0.58804  0.37268  1.0000
  N   N101      1.0  0.73553  0.61161  0.38364  1.0000
  C   C126      1.0  0.75719  0.62297  0.42005  1.0000
  N   N102      1.0  0.76692  0.60994  0.44152  1.0000
  C   C127      1.0  0.83756  0.25491  0.42333  1.0000
  N   N103      1.0  0.84926  0.27682  0.38924  1.0000
  C   C128      1.0  0.87269  0.28811  0.37531  1.0000
  N   N104      1.0  0.88382  0.27576  0.38854  1.0000
  C   C129      1.0  0.87297  0.25392  0.42343  1.0000
  N   N105      1.0  0.84996  0.24422  0.44052  1.0000
  C   C130      1.0  0.58687  0.83495  0.42172  1.0000
  N   N106      1.0  0.57674  0.84667  0.38708  1.0000
  C   C131      1.0  0.58893  0.87013  0.37368  1.0000
  N   N107      1.0  0.61233  0.88128  0.38830  1.0000
  C   C132      1.0  0.62319  0.87040  0.42395  1.0000
  N   N108      1.0  0.60989  0.84735  0.44035  1.0000
  C   C133      1.0  0.25687  0.42290  0.42359  1.0000
  N   N109      1.0  0.27875  0.43309  0.38921  1.0000
  C   C134      1.0  0.29003  0.42094  0.37519  1.0000
  N   N110      1.0  0.27773  0.39748  0.38882  1.0000
  C   C135      1.0  0.25595  0.38656  0.42423  1.0000
  N   N111      1.0  0.24624  0.39985  0.44143  1.0000
  C   C136      1.0  0.17579  0.75338  0.42673  1.0000
  N   N112      1.0  0.16397  0.73151  0.39231  1.0000
  C   C137      1.0  0.14051  0.72031  0.37907  1.0000
  N   N113      1.0  0.12945  0.73267  0.39349  1.0000
  C   C138      1.0  0.14046  0.75445  0.42888  1.0000
  N   N114      1.0  0.16348  0.76409  0.44538  1.0000
  C   C139      1.0  0.15212  0.31069  0.28033  1.0000
  N   N115      1.0  0.13670  0.28778  0.29748  1.0000
  C   C140      1.0  0.14405  0.27311  0.32945  1.0000
  N   N116      1.0  0.16702  0.28245  0.35116  1.0000
  C   C141      1.0  0.18307  0.30478  0.33261  1.0000
  N   N117      1.0  0.17468  0.31799  0.29966  1.0000
  C   C142      1.0  0.69902  0.84279  0.27929  1.0000
  N   N118      1.0  0.72196  0.85031  0.29611  1.0000
  C   C143      1.0  0.73660  0.87231  0.32844  1.0000
  N   N119      1.0  0.72726  0.88589  0.35077  1.0000
  C   C144      1.0  0.70491  0.87949  0.33267  1.0000
  N   N120      1.0  0.69165  0.85796  0.29915  1.0000
  C   C145      1.0  0.16810  0.85779  0.28268  1.0000
  N   N121      1.0  0.16090  0.87341  0.30032  1.0000
  C   C146      1.0  0.13912  0.86634  0.33434  1.0000
  N   N122      1.0  0.12546  0.84347  0.35740  1.0000
  C   C147      1.0  0.13150  0.82729  0.33819  1.0000
  N   N123      1.0  0.15283  0.83530  0.30315  1.0000
  C   C148      1.0  0.86155  0.69957  0.28315  1.0000
  N   N124      1.0  0.87651  0.72262  0.30013  1.0000
  C   C149      1.0  0.86859  0.73709  0.32912  1.0000
  N   N125      1.0  0.84544  0.72739  0.34832  1.0000
  C   C150      1.0  0.82988  0.70490  0.33004  1.0000
  N   N126      1.0  0.83877  0.69192  0.29947  1.0000
  C   C151      1.0  0.31352  0.16534  0.27903  1.0000
  N   N127      1.0  0.29063  0.15789  0.29666  1.0000
  C   C152      1.0  0.27596  0.13586  0.32864  1.0000
  N   N128      1.0  0.28530  0.12220  0.34986  1.0000
  C   C153      1.0  0.30757  0.12841  0.33071  1.0000
  N   N129      1.0  0.32078  0.15003  0.29781  1.0000
  C   C154      1.0  0.84569  0.15052  0.27905  1.0000
  N   N130      1.0  0.85315  0.13506  0.29604  1.0000
  C   C155      1.0  0.87513  0.14236  0.32839  1.0000
  N   N131      1.0  0.88874  0.16529  0.35062  1.0000
  C   C156      1.0  0.88248  0.18137  0.33236  1.0000
  N   N132      1.0  0.86094  0.17305  0.29874  1.0000
  C   C157      1.0  0.08858  0.50295  0.34507  1.0000
  N   N133      1.0  0.10180  0.49263  0.33962  1.0000
  C   C158      1.0  0.09192  0.46896  0.33971  1.0000
  N   N134      1.0  0.06833  0.45588  0.34425  1.0000
  C   C159      1.0  0.05472  0.46571  0.35048  1.0000
  N   N135      1.0  0.06523  0.48922  0.35041  1.0000
  C   C160      1.0  0.50741  0.58699  0.34568  1.0000
  N   N136      1.0  0.51763  0.61049  0.33848  1.0000
  C   C161      1.0  0.54128  0.62434  0.33688  1.0000
  N   N137      1.0  0.55444  0.61392  0.34133  1.0000
  C   C162      1.0  0.54472  0.59052  0.34902  1.0000
  N   N138      1.0  0.52122  0.57745  0.35095  1.0000
  C   C163      1.0  0.42345  0.92188  0.34908  1.0000
  N   N139      1.0  0.40000  0.90857  0.34029  1.0000
  C   C164      1.0  0.38613  0.91833  0.33754  1.0000
  N   N140      1.0  0.39646  0.94190  0.34248  1.0000
  C   C165      1.0  0.41982  0.95560  0.35171  1.0000
  N   N141      1.0  0.43291  0.94520  0.35488  1.0000
  C   C166      1.0  0.92381  0.50550  0.33741  1.0000
  N   N142      1.0  0.91072  0.51602  0.33898  1.0000
  C   C167      1.0  0.92084  0.53973  0.33886  1.0000
  N   N143      1.0  0.94449  0.55265  0.33731  1.0000
  C   C168      1.0  0.95800  0.54266  0.33671  1.0000
  N   N144      1.0  0.94718  0.51914  0.33631  1.0000
  C   C169      1.0  0.50611  0.42108  0.33340  1.0000
  N   N145      1.0  0.49574  0.39749  0.33411  1.0000
  C   C170      1.0  0.47205  0.38377  0.33328  1.0000
  N   N146      1.0  0.45899  0.39435  0.33191  1.0000
  C   C171      1.0  0.46885  0.41784  0.33216  1.0000
  N   N147      1.0  0.49237  0.43070  0.33253  1.0000
  C   C172      1.0  0.58991  0.08665  0.34153  1.0000
  N   N148      1.0  0.61347  0.09986  0.33761  1.0000
  C   C173      1.0  0.62718  0.08990  0.33462  1.0000
  N   N149      1.0  0.61662  0.06627  0.33543  1.0000
  C   C174      1.0  0.59315  0.05264  0.34001  1.0000
  N   N150      1.0  0.58030  0.06329  0.34291  1.0000
  C   C175      1.0  0.50802  0.08693  0.34427  1.0000
  N   N151      1.0  0.49767  0.10015  0.33773  1.0000
  C   C176      1.0  0.47399  0.09011  0.33857  1.0000
  N   N152      1.0  0.46108  0.06655  0.34632  1.0000
  C   C177      1.0  0.47088  0.05300  0.35401  1.0000
  N   N153      1.0  0.49436  0.06364  0.35201  1.0000
  C   C178      1.0  0.58847  0.50280  0.33803  1.0000
  N   N154      1.0  0.61209  0.51324  0.33387  1.0000
  C   C179      1.0  0.62566  0.53693  0.33709  1.0000
  N   N155      1.0  0.61492  0.54975  0.34474  1.0000
  C   C180      1.0  0.59151  0.53985  0.35026  1.0000
  N   N156      1.0  0.57876  0.51640  0.34565  1.0000
  C   C181      1.0  0.92349  0.42325  0.34043  1.0000
  N   N157      1.0  0.91016  0.39964  0.33703  1.0000
  C   C182      1.0  0.92010  0.38591  0.34063  1.0000
  N   N158      1.0  0.94366  0.39650  0.34793  1.0000
  C   C183      1.0  0.95733  0.41989  0.35274  1.0000
  N   N159      1.0  0.94680  0.43281  0.34780  1.0000
  C   C184      1.0  0.50453  0.92029  0.33906  1.0000
  N   N160      1.0  0.51513  0.90729  0.33643  1.0000
  C   C185      1.0  0.53884  0.91767  0.33545  1.0000
  N   N161      1.0  0.55155  0.94135  0.33802  1.0000
  C   C186      1.0  0.54149  0.95478  0.34151  1.0000
  N   N162      1.0  0.51801  0.94364  0.34137  1.0000
  C   C187      1.0  0.42452  0.50611  0.33179  1.0000
  N   N163      1.0  0.40089  0.49536  0.33273  1.0000
  C   C188      1.0  0.38767  0.47163  0.33242  1.0000
  N   N164      1.0  0.39879  0.45905  0.33238  1.0000
  C   C189      1.0  0.42230  0.46924  0.33238  1.0000
  N   N165      1.0  0.43449  0.49272  0.33154  1.0000
  C   C190      1.0  0.09032  0.58572  0.33142  1.0000
  N   N166      1.0  0.10338  0.60933  0.33365  1.0000
  C   C191      1.0  0.09306  0.62272  0.33530  1.0000
  N   N167      1.0  0.06938  0.61180  0.33596  1.0000
  C   C192      1.0  0.05588  0.58832  0.33497  1.0000
  N   N168      1.0  0.06697  0.57595  0.33202  1.0000
  C   C193      1.0  0.09015  0.13777  0.33907  1.0000
  N   N169      1.0  0.10199  0.16137  0.34089  1.0000
  C   C194      1.0  0.09156  0.17450  0.34151  1.0000
  N   N170      1.0  0.06792  0.16280  0.33958  1.0000
  C   C195      1.0  0.05486  0.13913  0.33806  1.0000
  N   N171      1.0  0.06652  0.12707  0.33789  1.0000
  C   C196      1.0  0.87185  0.95403  0.33781  1.0000
  N   N172      1.0  0.84826  0.94229  0.33929  1.0000
  C   C197      1.0  0.83515  0.91872  0.34001  1.0000
  N   N173      1.0  0.84681  0.90674  0.33858  1.0000
  C   C198      1.0  0.87046  0.91737  0.33740  1.0000
  N   N174      1.0  0.88252  0.94108  0.33711  1.0000
  C   C199      1.0  0.05792  0.92012  0.34258  1.0000
  N   N175      1.0  0.06982  0.90845  0.34525  1.0000
  C   C200      1.0  0.09339  0.91908  0.34628  1.0000
  N   N176      1.0  0.10520  0.94273  0.34369  1.0000
  C   C201      1.0  0.09439  0.95560  0.34135  1.0000
  N   N177      1.0  0.07069  0.94375  0.34093  1.0000
  C   C202      1.0  0.92269  0.87099  0.33976  1.0000
  N   N178      1.0  0.91201  0.84739  0.33999  1.0000
  C   C203      1.0  0.92394  0.83561  0.33974  1.0000
  N   N179      1.0  0.94758  0.84860  0.33953  1.0000
  C   C204      1.0  0.95931  0.87230  0.33962  1.0000
  N   N180      1.0  0.94629  0.88286  0.33966  1.0000
  C   C205      1.0  0.14076  0.05427  0.34022  1.0000
  N   N181      1.0  0.16434  0.06613  0.34188  1.0000
  C   C206      1.0  0.17737  0.08970  0.34230  1.0000
  N   N182      1.0  0.16556  0.10154  0.34030  1.0000
  C   C207      1.0  0.14188  0.09079  0.33892  1.0000
  N   N183      1.0  0.12994  0.06708  0.33897  1.0000
  C   C208      1.0  0.95614  0.08795  0.33823  1.0000
  N   N184      1.0  0.94448  0.09988  0.33995  1.0000
  C   C209      1.0  0.92092  0.08953  0.34050  1.0000
  N   N185      1.0  0.90889  0.06588  0.33861  1.0000
  C   C210      1.0  0.91943  0.05275  0.33719  1.0000
  N   N186      1.0  0.94314  0.06433  0.33709  1.0000
  N   N187      1.0  0.13075  0.35306  0.27480  1.0000
  C   C211      1.0  0.12836  0.33130  0.27456  1.0000
  H   H31       1.0  0.11348  0.31758  0.29938  1.0000
  N   N188      1.0  0.65679  0.77910  0.27171  1.0000
  C   C212      1.0  0.67856  0.79846  0.27171  1.0000
  H   H32       1.0  0.69220  0.79731  0.29743  1.0000
  N   N189      1.0  0.23165  0.87891  0.27265  1.0000
  C   C213      1.0  0.21235  0.88141  0.27317  1.0000
  H   H33       1.0  0.21370  0.89633  0.29842  1.0000
  N   N190      1.0  0.88390  0.65799  0.28602  1.0000
  C   C214      1.0  0.88595  0.67960  0.28310  1.0000
  H   H34       1.0  0.90055  0.69353  0.30857  1.0000
  N   N191      1.0  0.35593  0.22906  0.27427  1.0000
  C   C215      1.0  0.33417  0.20971  0.27380  1.0000
  H   H35       1.0  0.32045  0.21086  0.29866  1.0000
  N   N192      1.0  0.78201  0.12917  0.27168  1.0000
  C   C216      1.0  0.80135  0.12673  0.27145  1.0000
  H   H36       1.0  0.80017  0.11189  0.29669  1.0000
  C   C217      1.0  0.36513  0.12806  0.42067  1.0000
  C   C218      1.0  0.32036  0.11983  0.37507  1.0000
  N   N193      1.0  0.33237  0.13275  0.44749  1.0000
  C   C219      1.0  0.35361  0.13679  0.47467  1.0000
  N   N194      1.0  0.36424  0.15070  0.55106  1.0000
  O   O49       1.0  0.36628  0.17040  0.54168  1.0000
  O   O50       1.0  0.35211  0.14144  0.61975  1.0000
  C   C220      1.0  0.77200  0.64729  0.41802  1.0000
  C   C221      1.0  0.80820  0.69214  0.37238  1.0000
  N   N195      1.0  0.80907  0.68032  0.44549  1.0000
  C   C222      1.0  0.79200  0.65910  0.47352  1.0000
  N   N196      1.0  0.79530  0.64849  0.55049  1.0000
  O   O51       1.0  0.81572  0.65861  0.58044  1.0000
  O   O52       1.0  0.78258  0.64854  0.61275  1.0000
  C   C223      1.0  0.88226  0.23893  0.42199  1.0000
  C   C224      1.0  0.89115  0.20277  0.37663  1.0000
  N   N197      1.0  0.87777  0.20155  0.44804  1.0000
  C   C225      1.0  0.87339  0.21853  0.47519  1.0000
  N   N198      1.0  0.85907  0.21487  0.55058  1.0000
  O   O53       1.0  0.83951  0.19713  0.53957  1.0000
  O   O54       1.0  0.86806  0.21189  0.61983  1.0000
  C   C226      1.0  0.64746  0.87974  0.42345  1.0000
  C   C227      1.0  0.69230  0.88822  0.37726  1.0000
  N   N199      1.0  0.68017  0.87500  0.44905  1.0000
  C   C228      1.0  0.65893  0.87084  0.47666  1.0000
  N   N200      1.0  0.64825  0.85662  0.55227  1.0000
  O   O55       1.0  0.64626  0.83698  0.54159  1.0000
  O   O56       1.0  0.66031  0.86564  0.62133  1.0000
  C   C229      1.0  0.24094  0.36229  0.42326  1.0000
  C   C230      1.0  0.20439  0.31754  0.37735  1.0000
  N   N201      1.0  0.20343  0.32958  0.44957  1.0000
  C   C231      1.0  0.22063  0.35080  0.47692  1.0000
  N   N202      1.0  0.21728  0.36145  0.55309  1.0000
  O   O57       1.0  0.19966  0.36353  0.54325  1.0000
  O   O58       1.0  0.21431  0.34932  0.62187  1.0000
  C   C232      1.0  0.13120  0.76947  0.42836  1.0000
  C   C233      1.0  0.12289  0.80600  0.38313  1.0000
  N   N203      1.0  0.13610  0.80698  0.45473  1.0000
  C   C234      1.0  0.14020  0.78982  0.48187  1.0000
  N   N204      1.0  0.15440  0.79323  0.55743  1.0000
  O   O59       1.0  0.17408  0.81085  0.54688  1.0000
  O   O60       1.0  0.14542  0.79625  0.62665  1.0000
  C   C235      1.0  0.20484  0.43992  0.38809  1.0000
  C   C236      1.0  0.24253  0.43288  0.42363  1.0000
  N   N205      1.0  0.22253  0.42229  0.47206  1.0000
  C   C237      1.0  0.20434  0.42600  0.46153  1.0000
  N   N206      1.0  0.18396  0.41295  0.51284  1.0000
  O   O61       1.0  0.17588  0.39155  0.50117  1.0000
  O   O62       1.0  0.18841  0.41721  0.59503  1.0000
  C   C238      1.0  0.56991  0.76607  0.38479  1.0000
  C   C239      1.0  0.57697  0.81064  0.42096  1.0000
  N   N207      1.0  0.58742  0.80113  0.46965  1.0000
  C   C240      1.0  0.58369  0.77923  0.45880  1.0000
  N   N208      1.0  0.59663  0.77175  0.50994  1.0000
  O   O63       1.0  0.61804  0.78506  0.49874  1.0000
  O   O64       1.0  0.59228  0.77180  0.59210  1.0000
  C   C241      1.0  0.24471  0.80517  0.38858  1.0000
  C   C242      1.0  0.20011  0.76766  0.42590  1.0000
  N   N209      1.0  0.20975  0.78764  0.47446  1.0000
  C   C243      1.0  0.23165  0.80576  0.46303  1.0000
  N   N210      1.0  0.23927  0.82622  0.51408  1.0000
  O   O65       1.0  0.22599  0.83437  0.50332  1.0000
  O   O66       1.0  0.23935  0.82185  0.59622  1.0000
  C   C244      1.0  0.80975  0.57127  0.40377  1.0000
  C   C245      1.0  0.77113  0.57712  0.43188  1.0000
  N   N211      1.0  0.79080  0.58835  0.48200  1.0000
  C   C246      1.0  0.80942  0.58519  0.47569  1.0000
  N   N212      1.0  0.82973  0.59926  0.52646  1.0000
  O   O67       1.0  0.83226  0.61878  0.54660  1.0000
  O   O68       1.0  0.82862  0.58896  0.59851  1.0000
  C   C247      1.0  0.44279  0.24179  0.38785  1.0000
  C   C248      1.0  0.43579  0.19704  0.42255  1.0000
  N   N213      1.0  0.42517  0.20638  0.47123  1.0000
  C   C249      1.0  0.42886  0.22828  0.46113  1.0000
  N   N214      1.0  0.41579  0.23554  0.51262  1.0000
  O   O69       1.0  0.39440  0.22223  0.50082  1.0000
  O   O70       1.0  0.42002  0.23527  0.59479  1.0000
  C   C250      1.0  0.76878  0.20289  0.38595  1.0000
  C   C251      1.0  0.81325  0.24051  0.42272  1.0000
  N   N215      1.0  0.80379  0.22048  0.47101  1.0000
  C   C252      1.0  0.78193  0.20227  0.45995  1.0000
  N   N216      1.0  0.77449  0.18181  0.51082  1.0000
  O   O71       1.0  0.78782  0.17374  0.49941  1.0000
  O   O72       1.0  0.77451  0.18613  0.59304  1.0000
  N   N217      1.0  0.14090  0.45732  0.34340  1.0000
  C   C253      1.0  0.12962  0.46955  0.34661  1.0000
  H   H37       1.0  0.13896  0.48708  0.35720  1.0000
  N   N218      1.0  0.55273  0.68488  0.33975  1.0000
  C   C254      1.0  0.54055  0.66137  0.34310  1.0000
  H   H38       1.0  0.52303  0.65316  0.35387  1.0000
  N   N219      1.0  0.32570  0.86907  0.34013  1.0000
  C   C255      1.0  0.34921  0.88048  0.34331  1.0000
  H   H39       1.0  0.35748  0.87125  0.35440  1.0000
  N   N220      1.0  0.87265  0.55253  0.35273  1.0000
  C   C256      1.0  0.88357  0.53992  0.35370  1.0000
  H   H40       1.0  0.87406  0.52243  0.36477  1.0000
  N   N221      1.0  0.46015  0.32310  0.34412  1.0000
  C   C257      1.0  0.47244  0.34662  0.34647  1.0000
  H   H41       1.0  0.48994  0.35480  0.35760  1.0000
  N   N222      1.0  0.68777  0.13885  0.34132  1.0000
  C   C258      1.0  0.66427  0.12754  0.34444  1.0000
  H   H42       1.0  0.65607  0.13683  0.35595  1.0000
  C   C259      1.0  0.43571  0.12539  0.35139  1.0000
  C   C260      1.0  0.46213  0.10292  0.33709  1.0000
  N   N223      1.0  0.43853  0.09120  0.33383  1.0000
  C   C261      1.0  0.42480  0.10098  0.33917  1.0000
  N   N224      1.0  0.40049  0.08653  0.33558  1.0000
  O   O73       1.0  0.39454  0.07569  0.26232  1.0000
  O   O74       1.0  0.39354  0.07197  0.39846  1.0000
  C   C262      1.0  0.69925  0.57581  0.35101  1.0000
  C   C263      1.0  0.65035  0.54895  0.33642  1.0000
  N   N225      1.0  0.66208  0.57253  0.33157  1.0000
  C   C264      1.0  0.68556  0.58646  0.33692  1.0000
  N   N226      1.0  0.69519  0.61072  0.33148  1.0000
  O   O75       1.0  0.69025  0.61623  0.25734  1.0000
  O   O76       1.0  0.68740  0.61783  0.39316  1.0000
  C   C265      1.0  0.88495  0.31232  0.35453  1.0000
  C   C266      1.0  0.90731  0.36122  0.34040  1.0000
  N   N227      1.0  0.91909  0.34939  0.33800  1.0000
  C   C267      1.0  0.90938  0.32589  0.34348  1.0000
  N   N228      1.0  0.92392  0.31612  0.34087  1.0000
  O   O77       1.0  0.93496  0.32106  0.26809  1.0000
  O   O78       1.0  0.93830  0.32376  0.40435  1.0000
  C   C268      1.0  0.57711  0.88246  0.35220  1.0000
  C   C269      1.0  0.55078  0.90496  0.33644  1.0000
  N   N229      1.0  0.57438  0.91667  0.33324  1.0000
  C   C270      1.0  0.58807  0.90686  0.33950  1.0000
  N   N230      1.0  0.61239  0.92125  0.33578  1.0000
  O   O79       1.0  0.61836  0.93194  0.26221  1.0000
  O   O80       1.0  0.61937  0.93594  0.39820  1.0000
  C   C271      1.0  0.31419  0.43287  0.35371  1.0000
  C   C272      1.0  0.36300  0.45950  0.33581  1.0000
  N   N231      1.0  0.35124  0.43589  0.33366  1.0000
  C   C273      1.0  0.32778  0.42206  0.34112  1.0000
  N   N232      1.0  0.31801  0.39775  0.33857  1.0000
  O   O81       1.0  0.32259  0.39160  0.26512  1.0000
  O   O82       1.0  0.32600  0.39109  0.40106  1.0000
  C   C274      1.0  0.12816  0.69617  0.35734  1.0000
  C   C275      1.0  0.10575  0.64738  0.33911  1.0000
  N   N233      1.0  0.09399  0.65924  0.33761  1.0000
  C   C276      1.0  0.10374  0.68271  0.34528  1.0000
  N   N234      1.0  0.08929  0.69258  0.34337  1.0000
  O   O83       1.0  0.07846  0.68807  0.27015  1.0000
  O   O84       1.0  0.07471  0.68462  0.40614  1.0000
  C   C277      1.0  0.10486  0.19931  0.34311  1.0000
  C   C278      1.0  0.12959  0.24855  0.33809  1.0000
  N   N235      1.0  0.13982  0.23579  0.35841  1.0000
  C   C279      1.0  0.12900  0.21220  0.36247  1.0000
  N   N236      1.0  0.14213  0.20161  0.38539  1.0000
  O   O85       1.0  0.15813  0.20682  0.32935  1.0000
  O   O86       1.0  0.15108  0.20809  0.46189  1.0000
  C   C280      1.0  0.81035  0.90715  0.34144  1.0000
  C   C281      1.0  0.76116  0.88248  0.33678  1.0000
  N   N237      1.0  0.77384  0.90548  0.35682  1.0000
  C   C282      1.0  0.79742  0.91835  0.36067  1.0000
  N   N238      1.0  0.80793  0.94208  0.38329  1.0000
  O   O87       1.0  0.80263  0.95277  0.32712  1.0000
  O   O88       1.0  0.80147  0.94459  0.45976  1.0000
  C   C283      1.0  0.10497  0.90587  0.34870  1.0000
  C   C284      1.0  0.12930  0.88101  0.34352  1.0000
  N   N239      1.0  0.10658  0.87106  0.36748  1.0000
  C   C285      1.0  0.09391  0.88197  0.37194  1.0000
  N   N240      1.0  0.07048  0.86915  0.39912  1.0000
  O   O89       1.0  0.05910  0.85247  0.34642  1.0000
  O   O90       1.0  0.06892  0.86114  0.47693  1.0000
  C   C286      1.0  0.91157  0.81077  0.33960  1.0000
  C   C287      1.0  0.88312  0.76170  0.33763  1.0000
  N   N241      1.0  0.90646  0.77251  0.32352  1.0000
  C   C288      1.0  0.92111  0.79609  0.32486  1.0000
  N   N242      1.0  0.94502  0.80530  0.30918  1.0000
  O   O91       1.0  0.94832  0.79911  0.23341  1.0000
  O   O92       1.0  0.95356  0.79819  0.36789  1.0000
  C   C289      1.0  0.20219  0.10127  0.34369  1.0000
  C   C290      1.0  0.25142  0.12580  0.33783  1.0000
  N   N243      1.0  0.23870  0.10285  0.35867  1.0000
  C   C291      1.0  0.21512  0.09007  0.36318  1.0000
  N   N244      1.0  0.20459  0.06639  0.38663  1.0000
  O   O93       1.0  0.20975  0.05553  0.33073  1.0000
  O   O94       1.0  0.21117  0.06403  0.46311  1.0000
  C   C292      1.0  0.90950  0.10293  0.34201  1.0000
  C   C293      1.0  0.88516  0.12783  0.33699  1.0000
  N   N245      1.0  0.90813  0.13797  0.35739  1.0000
  C   C294      1.0  0.92082  0.12706  0.36144  1.0000
  N   N246      1.0  0.94454  0.14010  0.38448  1.0000
  O   O95       1.0  0.95539  0.15611  0.32852  1.0000
  O   O96       1.0  0.94703  0.14905  0.46101  1.0000
  N   N247      1.0  0.10088  0.56116  0.40755  1.0000
  C   C295      1.0  0.10123  0.54096  0.41568  1.0000
  H   H43       1.0  0.10170  0.53493  0.47851  1.0000
  N   N248      1.0  0.45032  0.53979  0.41169  1.0000
  C   C296      1.0  0.47061  0.56018  0.42050  1.0000
  H   H44       1.0  0.47770  0.56540  0.48314  1.0000
  N   N249      1.0  0.47134  0.91370  0.41902  1.0000
  C   C297      1.0  0.45093  0.91354  0.42687  1.0000
  H   H45       1.0  0.44604  0.91636  0.48871  1.0000
  N   N250      1.0  0.91155  0.44790  0.40836  1.0000
  C   C298      1.0  0.91044  0.46778  0.41175  1.0000
  H   H46       1.0  0.90897  0.47397  0.47293  1.0000
  N   N251      1.0  0.56340  0.46655  0.40674  1.0000
  C   C299      1.0  0.54341  0.44567  0.41000  1.0000
  H   H47       1.0  0.53687  0.43827  0.47125  1.0000
  N   N252      1.0  0.54233  0.09439  0.41893  1.0000
  C   C300      1.0  0.56316  0.09527  0.42352  1.0000
  H   H48       1.0  0.56886  0.09298  0.48452  1.0000
  C   C301      1.0  0.98176  0.43075  0.36049  1.0000
  C   C302      1.0  0.03028  0.45268  0.35609  1.0000
  N   N253      1.0  0.01897  0.46255  0.39599  1.0000
  C   C303      1.0  0.99550  0.45269  0.40238  1.0000
  N   N254      1.0  0.98555  0.46396  0.45082  1.0000
  O   O97       1.0  0.00004  0.48400  0.47696  1.0000
  O   O98       1.0  0.97638  0.45271  0.52148  1.0000
  C   C304      1.0  0.58038  0.55318  0.35827  1.0000
  C   C305      1.0  0.55794  0.57929  0.35424  1.0000
  N   N255      1.0  0.54825  0.55807  0.39372  1.0000
  C   C306      1.0  0.55836  0.54468  0.39983  1.0000
  N   N256      1.0  0.54723  0.52338  0.44773  1.0000
  O   O99       1.0  0.52699  0.51739  0.47268  1.0000
  O   O100      1.0  0.55832  0.52555  0.51895  1.0000
  C   C307      1.0  0.45740  0.02856  0.36203  1.0000
  C   C308      1.0  0.43106  0.98003  0.35749  1.0000
  N   N257      1.0  0.45208  0.99144  0.39852  1.0000
  C   C309      1.0  0.46556  0.01491  0.40501  1.0000
  N   N258      1.0  0.48663  0.02491  0.45443  1.0000
  O   O101      1.0  0.49232  0.01051  0.48071  1.0000
  O   O102      1.0  0.48424  0.03391  0.52497  1.0000
  C   C310      1.0  0.03124  0.57677  0.33738  1.0000
  C   C311      1.0  0.98254  0.55530  0.33726  1.0000
  N   N259      1.0  0.99377  0.54342  0.35475  1.0000
  C   C312      1.0  0.01715  0.55272  0.35609  1.0000
  N   N260      1.0  0.02632  0.53841  0.38006  1.0000
  O   O103      1.0  0.01868  0.52091  0.32990  1.0000
  O   O104      1.0  0.02129  0.53200  0.46029  1.0000
  C   C313      1.0  0.43410  0.45638  0.33421  1.0000
  C   C314      1.0  0.45602  0.42956  0.33304  1.0000
  N   N261      1.0  0.46769  0.45263  0.35116  1.0000
  C   C315      1.0  0.45817  0.46652  0.35303  1.0000
  N   N262      1.0  0.47231  0.49000  0.37735  1.0000
  O   O105      1.0  0.48978  0.50006  0.32708  1.0000
  O   O106      1.0  0.47879  0.49139  0.45748  1.0000
  C   C316      1.0  0.55453  0.97940  0.34497  1.0000
  C   C317      1.0  0.58145  0.02811  0.34252  1.0000
  N   N263      1.0  0.55861  0.01679  0.36477  1.0000
  C   C318      1.0  0.54471  0.99339  0.36779  1.0000
  N   N264      1.0  0.52151  0.98413  0.39590  1.0000
  O   O107      1.0  0.51088  0.99097  0.34603  1.0000
  O   O108      1.0  0.52085  0.99000  0.47561  1.0000
  N   N265      1.0  0.10598  0.09135  0.33777  1.0000
  C   C319      1.0  0.09224  0.10111  0.33779  1.0000
  H   H49       1.0  0.07460  0.09059  0.33734  1.0000
  N   N266      1.0  0.91854  0.01616  0.33651  1.0000
  C   C320      1.0  0.90863  0.99264  0.33666  1.0000
  H   H50       1.0  0.91906  0.98542  0.33651  1.0000
  N   N267      1.0  0.99589  0.87346  0.34152  1.0000
  C   C321      1.0  0.01938  0.88352  0.34241  1.0000
  H   H51       1.0  0.02659  0.87309  0.34348  1.0000
  N   N268      1.0  0.90622  0.91683  0.33827  1.0000
  C   C322      1.0  0.92001  0.90717  0.33902  1.0000
  H   H52       1.0  0.93762  0.91784  0.33955  1.0000
  N   N269      1.0  0.09466  0.99190  0.33941  1.0000
  C   C323      1.0  0.10427  0.01539  0.33912  1.0000
  H   H53       1.0  0.09365  0.02239  0.33839  1.0000
  N   N270      1.0  0.01828  0.10338  0.33687  1.0000
  C   C324      1.0  0.99476  0.08976  0.33689  1.0000
  H   H54       1.0  0.98754  0.07212  0.33639  1.0000
