data_image0
_chemical_formula_structural       C4H2CNC2NCH4C2NC6NC36H20N4C3NC3NC5NC5NC36H26N4C3NC3NC5NC5NC36H26N4C2HC2NHNO2CHC2HC2NHNO2CHC2HC2NHNO2CHC2HC2NHNO2CHC2HC2NHNO2CHC2HC2NHNO2CHC16H16C16H16C16H16C2NC4H2NO2CHC2NC4H2NO2CHC2NC4H2NO2CHC2NC4H2NO2CHC2NC4H2NO2CHC2NC4H2NO2CH
_chemical_formula_sum              "C276 H162 N48 O24"
_cell_length_a       75.2496
_cell_length_b       75.2496
_cell_length_c       14.9586
_cell_angle_alpha    89.8514
_cell_angle_beta     90.1486
_cell_angle_gamma    120

_space_group_name_H-M_alt    "P 1"
_space_group_IT_number       1

loop_
  _space_group_symop_operation_xyz
  'x, y, z'

loop_
  _atom_site_type_symbol
  _atom_site_label
  _atom_site_symmetry_multiplicity
  _atom_site_fract_x
  _atom_site_fract_y
  _atom_site_fract_z
  _atom_site_occupancy
  C   C1        1.0  0.01912  0.49383  0.31502  1.0000
  C   C2        1.0  0.01212  0.50788  0.31359  1.0000
  C   C3        1.0  0.01092  0.58386  0.31250  1.0000
  C   C4        1.0  0.01737  0.60480  0.31433  1.0000
  H   H1        1.0  0.01043  0.47818  0.31651  1.0000
  H   H2        1.0  0.00833  0.61138  0.31530  1.0000
  C   C5        1.0  0.04031  0.50467  0.31415  1.0000
  N   N1        1.0  0.02928  0.52665  0.31195  1.0000
  C   C6        1.0  0.04676  0.52560  0.31243  1.0000
  C   C7        1.0  0.04555  0.60158  0.31372  1.0000
  N   N2        1.0  0.02839  0.58282  0.31201  1.0000
  C   C8        1.0  0.03855  0.61564  0.31524  1.0000
  H   H3        1.0  0.04934  0.49808  0.31515  1.0000
  H   H4        1.0  0.02908  0.53930  0.31031  1.0000
  H   H5        1.0  0.02859  0.57017  0.31026  1.0000
  H   H6        1.0  0.04724  0.63128  0.31679  1.0000
  C   C9        1.0  0.06757  0.54172  0.31165  1.0000
  C   C10       1.0  0.07406  0.56298  0.31163  1.0000
  N   N3        1.0  0.06222  0.57182  0.31255  1.0000
  C   C11       1.0  0.07359  0.59252  0.31284  1.0000
  C   C12       1.0  0.06654  0.60686  0.31399  1.0000
  C   C13       1.0  0.09407  0.59729  0.31200  1.0000
  C   C14       1.0  0.09436  0.57910  0.31115  1.0000
  C   C15       1.0  0.99010  0.56775  0.31164  1.0000
  C   C16       1.0  0.98361  0.54649  0.31155  1.0000
  N   N4        1.0  0.99545  0.53765  0.31239  1.0000
  C   C17       1.0  0.98408  0.51695  0.31273  1.0000
  C   C18       1.0  0.96360  0.51219  0.31205  1.0000
  C   C19       1.0  0.96331  0.53038  0.31121  1.0000
  C   C20       1.0  0.99113  0.50261  0.31387  1.0000
  C   C21       1.0  0.97594  0.48140  0.31639  1.0000
  C   C22       1.0  0.94373  0.43957  0.32145  1.0000
  C   C23       1.0  0.95218  0.44958  0.23912  1.0000
  C   C24       1.0  0.96800  0.47022  0.23647  1.0000
  C   C25       1.0  0.92704  0.41887  0.32377  1.0000
  C   C26       1.0  0.92684  0.40352  0.26844  1.0000
  C   C27       1.0  0.91019  0.38327  0.26944  1.0000
  C   C28       1.0  0.89309  0.37772  0.32556  1.0000
  C   C29       1.0  0.97450  0.57323  0.31183  1.0000
  C   C30       1.0  0.94220  0.58277  0.31220  1.0000
  C   C31       1.0  0.95070  0.58074  0.23102  1.0000
  C   C32       1.0  0.96661  0.57604  0.23067  1.0000
  C   C33       1.0  0.92571  0.58710  0.31253  1.0000
  C   C34       1.0  0.89227  0.59505  0.31575  1.0000
  C   C35       1.0  0.89262  0.58119  0.25354  1.0000
  C   C36       1.0  0.90900  0.57718  0.25234  1.0000
  C   C37       1.0  0.08173  0.62807  0.31653  1.0000
  C   C38       1.0  0.08937  0.63940  0.23666  1.0000
  C   C39       1.0  0.10505  0.66009  0.23931  1.0000
  C   C40       1.0  0.11365  0.67002  0.32159  1.0000
  C   C41       1.0  0.13014  0.69081  0.32390  1.0000
  C   C42       1.0  0.16365  0.73219  0.32583  1.0000
  C   C43       1.0  0.14636  0.72649  0.27048  1.0000
  C   C44       1.0  0.12993  0.70613  0.26940  1.0000
  C   C45       1.0  0.08319  0.53626  0.31184  1.0000
  C   C46       1.0  0.09096  0.53341  0.23067  1.0000
  C   C47       1.0  0.11576  0.52712  0.31211  1.0000
  C   C48       1.0  0.10700  0.52891  0.23097  1.0000
  C   C49       1.0  0.13245  0.52307  0.31238  1.0000
  C   C50       1.0  0.14900  0.53309  0.25163  1.0000
  C   C51       1.0  0.16558  0.52939  0.25284  1.0000
  C   C52       1.0  0.16632  0.51578  0.31566  1.0000
  H   H7        1.0  0.17737  0.53707  0.20854  1.0000
  H   H8        1.0  0.14939  0.54359  0.20686  1.0000
  H   H9        1.0  0.11214  0.52679  0.17087  1.0000
  H   H10       1.0  0.08511  0.53477  0.17083  1.0000
  H   H11       1.0  0.10739  0.57805  0.31050  1.0000
  H   H12       1.0  0.10686  0.61154  0.31187  1.0000
  H   H13       1.0  0.08380  0.63256  0.17602  1.0000
  H   H14       1.0  0.11062  0.66765  0.18001  1.0000
  H   H15       1.0  0.95081  0.49793  0.31206  1.0000
  H   H16       1.0  0.95028  0.53143  0.31072  1.0000
  H   H17       1.0  0.97230  0.57456  0.17080  1.0000
  H   H18       1.0  0.94549  0.58285  0.17091  1.0000
  H   H19       1.0  0.90833  0.56652  0.20803  1.0000
  H   H20       1.0  0.88071  0.57358  0.20963  1.0000
  H   H21       1.0  0.97343  0.47714  0.17581  1.0000
  H   H22       1.0  0.94638  0.44215  0.17981  1.0000
  H   H23       1.0  0.91074  0.37262  0.22909  1.0000
  H   H24       1.0  0.93899  0.40689  0.22748  1.0000
  H   H25       1.0  0.11761  0.70265  0.22907  1.0000
  H   H26       1.0  0.14549  0.73711  0.23079  1.0000
  N   N5        1.0  0.87667  0.35900  0.32992  1.0000
  N   N6        1.0  0.18245  0.51299  0.31370  1.0000
  N   N7        1.0  0.17988  0.75104  0.33022  1.0000
  N   N8        1.0  0.87634  0.59816  0.31373  1.0000
  C   C53       1.0  0.58053  0.61947  0.31654  1.0000
  C   C54       1.0  0.59136  0.60912  0.31737  1.0000
  C   C55       1.0  0.57731  0.58807  0.31594  1.0000
  N   N9        1.0  0.55854  0.58647  0.31430  1.0000
  C   C56       1.0  0.55959  0.60499  0.31478  1.0000
  C   C57       1.0  0.54348  0.60970  0.31396  1.0000
  C   C58       1.0  0.52221  0.59492  0.31390  1.0000
  N   N10       1.0  0.51338  0.57425  0.31487  1.0000
  C   C59       1.0  0.49267  0.56491  0.31513  1.0000
  C   C60       1.0  0.48791  0.58063  0.31423  1.0000
  C   C61       1.0  0.50610  0.59911  0.31338  1.0000
  C   C62       1.0  0.47833  0.54353  0.31631  1.0000
  C   C63       1.0  0.48360  0.52781  0.31604  1.0000
  N   N11       1.0  0.50237  0.52942  0.31427  1.0000
  C   C64       1.0  0.50132  0.51089  0.31480  1.0000
  C   C65       1.0  0.48038  0.49641  0.31667  1.0000
  C   C66       1.0  0.46955  0.50676  0.31762  1.0000
  C   C67       1.0  0.51743  0.50618  0.31393  1.0000
  C   C68       1.0  0.53869  0.52096  0.31385  1.0000
  N   N12       1.0  0.54753  0.54163  0.31473  1.0000
  C   C69       1.0  0.56824  0.55097  0.31507  1.0000
  C   C70       1.0  0.57299  0.53524  0.31431  1.0000
  C   C71       1.0  0.55480  0.51676  0.31348  1.0000
  C   C72       1.0  0.58258  0.57235  0.31620  1.0000
  C   C73       1.0  0.60379  0.57836  0.31868  1.0000
  C   C74       1.0  0.64562  0.58798  0.32364  1.0000
  C   C75       1.0  0.63560  0.58652  0.24134  1.0000
  C   C76       1.0  0.61497  0.58172  0.23874  1.0000
  C   C77       1.0  0.66632  0.59200  0.32589  1.0000
  C   C78       1.0  0.68166  0.60721  0.27059  1.0000
  C   C79       1.0  0.70191  0.61082  0.27148  1.0000
  C   C80       1.0  0.70747  0.59919  0.32743  1.0000
  C   C81       1.0  0.51195  0.48511  0.31412  1.0000
  C   C82       1.0  0.50241  0.44327  0.31446  1.0000
  C   C83       1.0  0.50443  0.45388  0.23328  1.0000
  C   C84       1.0  0.50912  0.47449  0.23295  1.0000
  C   C85       1.0  0.49807  0.42245  0.31478  1.0000
  C   C86       1.0  0.49011  0.38105  0.31794  1.0000
  C   C87       1.0  0.50396  0.39532  0.25571  1.0000
  C   C88       1.0  0.50799  0.41572  0.25458  1.0000
  C   C89       1.0  0.45712  0.53750  0.31882  1.0000
  C   C90       1.0  0.44579  0.53385  0.23894  1.0000
  C   C91       1.0  0.42510  0.52886  0.24156  1.0000
  C   C92       1.0  0.41517  0.52746  0.32380  1.0000
  C   C93       1.0  0.39437  0.52314  0.32605  1.0000
  C   C94       1.0  0.35298  0.51525  0.32774  1.0000
  C   C95       1.0  0.35869  0.50369  0.27264  1.0000
  C   C96       1.0  0.37906  0.50763  0.27169  1.0000
  C   C97       1.0  0.54894  0.63077  0.31411  1.0000
  C   C98       1.0  0.55179  0.64147  0.23293  1.0000
  C   C99       1.0  0.55808  0.67249  0.31433  1.0000
  C   C100      1.0  0.55629  0.66202  0.23320  1.0000
  C   C101      1.0  0.56212  0.69321  0.31457  1.0000
  C   C102      1.0  0.55210  0.69980  0.25379  1.0000
  C   C103      1.0  0.55579  0.72008  0.25500  1.0000
  C   C104      1.0  0.56940  0.73437  0.31781  1.0000
  H   H27       1.0  0.54811  0.72423  0.21069  1.0000
  H   H28       1.0  0.54161  0.68974  0.20903  1.0000
  H   H29       1.0  0.55841  0.66932  0.17309  1.0000
  H   H30       1.0  0.55043  0.63432  0.17310  1.0000
  H   H31       1.0  0.58711  0.63509  0.31746  1.0000
  H   H32       1.0  0.60701  0.61608  0.31885  1.0000
  H   H33       1.0  0.54589  0.57362  0.31268  1.0000
  H   H34       1.0  0.51502  0.54227  0.31246  1.0000
  H   H35       1.0  0.50715  0.61319  0.31268  1.0000
  H   H36       1.0  0.47365  0.57917  0.31406  1.0000
  H   H37       1.0  0.45262  0.53515  0.17832  1.0000
  H   H38       1.0  0.41752  0.52685  0.18223  1.0000
  H   H39       1.0  0.45390  0.49979  0.31927  1.0000
  H   H40       1.0  0.47379  0.48079  0.31777  1.0000
  H   H41       1.0  0.58725  0.53671  0.31429  1.0000
  H   H42       1.0  0.55375  0.50269  0.31293  1.0000
  H   H43       1.0  0.51060  0.48172  0.17309  1.0000
  H   H44       1.0  0.50231  0.44662  0.17317  1.0000
  H   H45       1.0  0.51863  0.42575  0.21021  1.0000
  H   H46       1.0  0.51157  0.39106  0.21179  1.0000
  H   H47       1.0  0.60805  0.58031  0.17810  1.0000
  H   H48       1.0  0.64304  0.58826  0.18201  1.0000
  H   H49       1.0  0.71255  0.62208  0.23116  1.0000
  H   H50       1.0  0.67829  0.61607  0.22977  1.0000
  H   H51       1.0  0.38254  0.49881  0.23149  1.0000
  H   H52       1.0  0.34808  0.49222  0.23303  1.0000
  N   N13       1.0  0.72619  0.60147  0.33159  1.0000
  N   N14       1.0  0.57217  0.75328  0.31586  1.0000
  N   N15       1.0  0.33413  0.51263  0.33198  1.0000
  N   N16       1.0  0.48699  0.36201  0.31590  1.0000
  C   C105      1.0  0.46571  0.04488  0.31834  1.0000
  C   C106      1.0  0.47606  0.06607  0.31935  1.0000
  C   C107      1.0  0.49712  0.07307  0.31798  1.0000
  N   N17       1.0  0.49872  0.05591  0.31628  1.0000
  C   C108      1.0  0.48020  0.03844  0.31661  1.0000
  C   C109      1.0  0.47549  0.01762  0.31567  1.0000
  C   C110      1.0  0.49027  0.01113  0.31574  1.0000
  N   N18       1.0  0.51094  0.02296  0.31683  1.0000
  C   C111      1.0  0.52028  0.01160  0.31719  1.0000
  C   C112      1.0  0.50456  0.99112  0.31625  1.0000
  C   C113      1.0  0.48608  0.99083  0.31522  1.0000
  C   C114      1.0  0.54167  0.01865  0.31842  1.0000
  C   C115      1.0  0.55738  0.03963  0.31808  1.0000
  N   N19       1.0  0.55577  0.05679  0.31631  1.0000
  C   C116      1.0  0.57429  0.07427  0.31667  1.0000
  C   C117      1.0  0.58878  0.06782  0.31846  1.0000
  C   C118      1.0  0.57843  0.04663  0.31954  1.0000
  C   C119      1.0  0.57900  0.09509  0.31572  1.0000
  C   C120      1.0  0.56423  0.10157  0.31576  1.0000
  N   N20       1.0  0.54356  0.08974  0.31675  1.0000
  C   C121      1.0  0.53422  0.10111  0.31713  1.0000
  C   C122      1.0  0.54994  0.12159  0.31633  1.0000
  C   C123      1.0  0.56842  0.12188  0.31536  1.0000
  C   C124      1.0  0.51283  0.09406  0.31832  1.0000
  C   C125      1.0  0.50682  0.10926  0.32082  1.0000
  C   C126      1.0  0.49720  0.14146  0.32583  1.0000
  C   C127      1.0  0.49865  0.13299  0.24353  1.0000
  C   C128      1.0  0.50344  0.11715  0.24090  1.0000
  C   C129      1.0  0.49318  0.15815  0.32810  1.0000
  C   C130      1.0  0.47796  0.15832  0.27285  1.0000
  C   C131      1.0  0.47435  0.17497  0.27376  1.0000
  C   C132      1.0  0.48599  0.19210  0.32965  1.0000
  C   C133      1.0  0.60008  0.11068  0.31553  1.0000
  C   C134      1.0  0.64191  0.14298  0.31507  1.0000
  C   C135      1.0  0.63123  0.13442  0.23409  1.0000
  C   C136      1.0  0.61062  0.11851  0.23416  1.0000
  C   C137      1.0  0.66274  0.15947  0.31497  1.0000
  C   C138      1.0  0.70413  0.19291  0.31727  1.0000
  C   C139      1.0  0.68980  0.19251  0.25529  1.0000
  C   C140      1.0  0.66940  0.17614  0.25455  1.0000
  C   C141      1.0  0.54770  0.00346  0.32096  1.0000
  C   C142      1.0  0.55135  0.99586  0.24110  1.0000
  C   C143      1.0  0.55635  0.98017  0.24374  1.0000
  C   C144      1.0  0.55774  0.97154  0.32600  1.0000
  C   C145      1.0  0.56206  0.95506  0.32827  1.0000
  C   C146      1.0  0.56994  0.92156  0.32999  1.0000
  C   C147      1.0  0.58151  0.93889  0.27487  1.0000
  C   C148      1.0  0.57756  0.95532  0.27389  1.0000
  C   C149      1.0  0.45442  0.00201  0.31550  1.0000
  C   C150      1.0  0.44379  0.99430  0.23414  1.0000
  C   C151      1.0  0.41271  0.96943  0.31498  1.0000
  C   C152      1.0  0.42325  0.97825  0.23404  1.0000
  C   C153      1.0  0.39198  0.95275  0.31484  1.0000
  C   C154      1.0  0.38544  0.93624  0.25389  1.0000
  C   C155      1.0  0.36516  0.91965  0.25472  1.0000
  C   C156      1.0  0.35081  0.91887  0.31727  1.0000
  H   H53       1.0  0.36104  0.90790  0.21024  1.0000
  H   H54       1.0  0.39554  0.93588  0.20928  1.0000
  H   H55       1.0  0.41599  0.97316  0.17381  1.0000
  H   H56       1.0  0.45099  0.00019  0.17443  1.0000
  H   H57       1.0  0.45009  0.03585  0.31921  1.0000
  H   H58       1.0  0.46910  0.07476  0.32082  1.0000
  H   H59       1.0  0.51157  0.05611  0.31467  1.0000
  H   H60       1.0  0.54292  0.05659  0.31460  1.0000
  H   H61       1.0  0.47201  0.97780  0.31447  1.0000
  H   H62       1.0  0.50603  0.97833  0.31608  1.0000
  H   H63       1.0  0.55004  0.00144  0.18047  1.0000
  H   H64       1.0  0.55833  0.97464  0.18443  1.0000
  H   H65       1.0  0.58540  0.03795  0.32113  1.0000
  H   H66       1.0  0.60440  0.07685  0.31942  1.0000
  H   H67       1.0  0.54847  0.13438  0.31630  1.0000
  H   H68       1.0  0.58249  0.13490  0.31475  1.0000
  H   H69       1.0  0.60333  0.11277  0.17444  1.0000
  H   H70       1.0  0.63843  0.13958  0.17384  1.0000
  H   H71       1.0  0.65932  0.17677  0.21039  1.0000
  H   H72       1.0  0.69400  0.20439  0.21125  1.0000
  H   H73       1.0  0.50485  0.11171  0.18025  1.0000
  H   H74       1.0  0.49690  0.13874  0.18420  1.0000
  H   H75       1.0  0.46308  0.17439  0.23347  1.0000
  H   H76       1.0  0.46909  0.14613  0.23206  1.0000
  H   H77       1.0  0.58639  0.96766  0.23370  1.0000
  H   H78       1.0  0.59297  0.93978  0.23525  1.0000
  N   N21       1.0  0.48370  0.20853  0.33384  1.0000
  N   N22       1.0  0.33189  0.90275  0.31491  1.0000
  N   N23       1.0  0.57256  0.90533  0.33421  1.0000
  N   N24       1.0  0.72317  0.20884  0.31484  1.0000
  C   C157      1.0  0.22728  0.49367  0.27651  1.0000
  C   C158      1.0  0.20982  0.49586  0.28998  1.0000
  H   H79       1.0  0.19753  0.48846  0.24772  1.0000
  C   C159      1.0  0.30031  0.50370  0.29835  1.0000
  C   C160      1.0  0.28763  0.50331  0.22783  1.0000
  N   N25       1.0  0.26995  0.50322  0.24570  1.0000
  H   H80       1.0  0.29160  0.50335  0.16245  1.0000
  N   N26       1.0  0.22769  0.48117  0.20690  1.0000
  O   O1        1.0  0.22599  0.48756  0.13147  1.0000
  O   O2        1.0  0.21364  0.46283  0.21559  1.0000
  C   C161      1.0  0.31844  0.50378  0.27995  1.0000
  H   H81       1.0  0.31956  0.49772  0.22270  1.0000
  C   C162      1.0  0.59151  0.81748  0.27872  1.0000
  C   C163      1.0  0.58930  0.79781  0.29218  1.0000
  H   H82       1.0  0.59669  0.79296  0.24986  1.0000
  C   C164      1.0  0.58148  0.88046  0.30057  1.0000
  C   C165      1.0  0.58187  0.86824  0.23005  1.0000
  N   N27       1.0  0.58196  0.85064  0.24792  1.0000
  H   H83       1.0  0.58183  0.87224  0.16468  1.0000
  N   N28       1.0  0.60399  0.83045  0.20906  1.0000
  O   O3        1.0  0.59758  0.82243  0.13365  1.0000
  O   O4        1.0  0.62233  0.83472  0.21768  1.0000
  C   C166      1.0  0.58140  0.89853  0.28216  1.0000
  H   H84       1.0  0.58746  0.90577  0.22494  1.0000
  C   C167      1.0  0.26774  0.85792  0.27629  1.0000
  C   C168      1.0  0.28739  0.87538  0.29019  1.0000
  H   H85       1.0  0.29229  0.88769  0.24798  1.0000
  C   C169      1.0  0.20475  0.78488  0.29696  1.0000
  C   C170      1.0  0.21704  0.79758  0.22668  1.0000
  N   N29       1.0  0.23462  0.81526  0.24487  1.0000
  H   H86       1.0  0.21312  0.79364  0.16123  1.0000
  N   N30       1.0  0.25485  0.85754  0.20633  1.0000
  O   O5        1.0  0.26297  0.85927  0.13111  1.0000
  O   O6        1.0  0.25056  0.87158  0.21483  1.0000
  C   C171      1.0  0.18672  0.76674  0.27823  1.0000
  H   H87       1.0  0.17950  0.76565  0.22096  1.0000
  C   C172      1.0  0.83235  0.61862  0.27624  1.0000
  C   C173      1.0  0.84962  0.61609  0.28980  1.0000
  H   H88       1.0  0.86189  0.62334  0.24749  1.0000
  C   C174      1.0  0.75981  0.60979  0.29780  1.0000
  C   C175      1.0  0.77234  0.60998  0.22735  1.0000
  N   N31       1.0  0.78987  0.60976  0.24531  1.0000
  H   H89       1.0  0.76836  0.61004  0.16195  1.0000
  N   N32       1.0  0.83212  0.63127  0.20652  1.0000
  O   O7        1.0  0.83365  0.62481  0.13115  1.0000
  O   O8        1.0  0.84639  0.64951  0.21513  1.0000
  C   C176      1.0  0.74182  0.61002  0.27928  1.0000
  H   H90       1.0  0.74075  0.61612  0.22187  1.0000
  C   C177      1.0  0.46655  0.29759  0.27840  1.0000
  C   C178      1.0  0.46909  0.31738  0.29194  1.0000
  H   H91       1.0  0.46182  0.32244  0.24967  1.0000
  C   C179      1.0  0.47539  0.23387  0.30001  1.0000
  C   C180      1.0  0.47520  0.24627  0.22955  1.0000
  N   N33       1.0  0.47542  0.26401  0.24748  1.0000
  H   H92       1.0  0.47514  0.24231  0.16416  1.0000
  N   N34       1.0  0.45390  0.28479  0.20872  1.0000
  O   O9        1.0  0.46034  0.29283  0.13333  1.0000
  O   O10       1.0  0.43566  0.28079  0.21737  1.0000
  C   C181      1.0  0.47515  0.21566  0.28153  1.0000
  H   H93       1.0  0.46908  0.20857  0.22406  1.0000
  C   C182      1.0  0.78754  0.25283  0.27599  1.0000
  C   C183      1.0  0.76776  0.23557  0.28993  1.0000
  H   H94       1.0  0.76265  0.22328  0.24768  1.0000
  C   C184      1.0  0.85132  0.32537  0.29651  1.0000
  C   C185      1.0  0.83884  0.31282  0.22626  1.0000
  N   N35       1.0  0.82111  0.29530  0.24451  1.0000
  H   H95       1.0  0.84274  0.31678  0.16080  1.0000
  N   N36       1.0  0.80026  0.25303  0.20595  1.0000
  O   O11       1.0  0.79212  0.25149  0.13077  1.0000
  O   O12       1.0  0.80425  0.23877  0.21436  1.0000
  C   C186      1.0  0.86951  0.34335  0.27772  1.0000
  H   H96       1.0  0.87656  0.34440  0.22018  1.0000
  C   C187      1.0  0.96785  0.47151  0.39887  1.0000
  C   C188      1.0  0.95198  0.45090  0.40121  1.0000
  C   C189      1.0  0.89333  0.39287  0.38169  1.0000
  C   C190      1.0  0.90998  0.41310  0.38068  1.0000
  C   C191      1.0  0.96626  0.57532  0.39318  1.0000
  C   C192      1.0  0.95037  0.58004  0.39321  1.0000
  C   C193      1.0  0.92544  0.60134  0.37354  1.0000
  C   C194      1.0  0.90904  0.60530  0.37507  1.0000
  C   C195      1.0  0.10572  0.65853  0.40131  1.0000
  C   C196      1.0  0.08998  0.63787  0.39897  1.0000
  C   C197      1.0  0.14739  0.69673  0.38003  1.0000
  C   C198      1.0  0.16382  0.71708  0.38113  1.0000
  C   C199      1.0  0.09167  0.53438  0.39314  1.0000
  C   C200      1.0  0.10769  0.52985  0.39312  1.0000
  C   C201      1.0  0.14973  0.50544  0.37556  1.0000
  C   C202      1.0  0.13311  0.50908  0.37400  1.0000
  H   H97       1.0  0.14955  0.49506  0.42037  1.0000
  H   H98       1.0  0.12129  0.50112  0.41780  1.0000
  H   H99       1.0  0.11382  0.52916  0.45329  1.0000
  H   H100      1.0  0.08646  0.53662  0.45284  1.0000
  H   H101      1.0  0.08475  0.62995  0.45778  1.0000
  H   H102      1.0  0.11128  0.66515  0.46228  1.0000
  H   H103      1.0  0.97158  0.57313  0.45290  1.0000
  H   H104      1.0  0.94444  0.58092  0.45342  1.0000
  H   H105      1.0  0.90950  0.61585  0.41940  1.0000
  H   H106      1.0  0.93740  0.60924  0.41690  1.0000
  H   H107      1.0  0.90926  0.42374  0.42066  1.0000
  H   H108      1.0  0.88118  0.38934  0.42303  1.0000
  H   H109      1.0  0.94651  0.44422  0.46221  1.0000
  H   H110      1.0  0.97327  0.47933  0.45771  1.0000
  H   H111      1.0  0.14840  0.68613  0.41942  1.0000
  H   H112      1.0  0.17613  0.72072  0.42190  1.0000
  C   C203      1.0  0.61368  0.58005  0.40113  1.0000
  C   C204      1.0  0.63429  0.58478  0.40343  1.0000
  C   C205      1.0  0.69233  0.58421  0.38353  1.0000
  C   C206      1.0  0.67209  0.58062  0.38260  1.0000
  C   C207      1.0  0.50988  0.47470  0.39546  1.0000
  C   C208      1.0  0.50515  0.45409  0.39548  1.0000
  C   C209      1.0  0.48383  0.40787  0.37578  1.0000
  C   C210      1.0  0.47986  0.38750  0.37730  1.0000
  C   C211      1.0  0.42667  0.53099  0.40353  1.0000
  C   C212      1.0  0.44733  0.53592  0.40123  1.0000
  C   C213      1.0  0.38844  0.53444  0.38198  1.0000
  C   C214      1.0  0.36809  0.53052  0.38295  1.0000
  C   C215      1.0  0.55081  0.64105  0.39541  1.0000
  C   C216      1.0  0.55535  0.66161  0.39536  1.0000
  C   C217      1.0  0.57975  0.72807  0.37771  1.0000
  C   C218      1.0  0.57611  0.70781  0.37618  1.0000
  H   H113      1.0  0.59012  0.73822  0.42253  1.0000
  H   H114      1.0  0.58407  0.70391  0.41999  1.0000
  H   H115      1.0  0.55603  0.66837  0.45550  1.0000
  H   H116      1.0  0.54857  0.63354  0.45512  1.0000
  H   H117      1.0  0.45525  0.53859  0.46004  1.0000
  H   H118      1.0  0.42005  0.52991  0.46448  1.0000
  H   H119      1.0  0.51206  0.48214  0.45518  1.0000
  H   H120      1.0  0.50427  0.44721  0.45568  1.0000
  H   H121      1.0  0.46932  0.37737  0.42163  1.0000
  H   H122      1.0  0.47593  0.41188  0.41916  1.0000
  H   H123      1.0  0.66146  0.56921  0.42259  1.0000
  H   H124      1.0  0.69586  0.57552  0.42472  1.0000
  H   H125      1.0  0.64097  0.58592  0.46439  1.0000
  H   H126      1.0  0.60585  0.57756  0.45998  1.0000
  H   H127      1.0  0.39904  0.54605  0.42123  1.0000
  H   H128      1.0  0.36444  0.53917  0.42353  1.0000
  C   C219      1.0  0.50514  0.11737  0.40329  1.0000
  C   C220      1.0  0.50041  0.13325  0.40560  1.0000
  C   C221      1.0  0.50098  0.19189  0.38572  1.0000
  C   C222      1.0  0.50456  0.17523  0.38481  1.0000
  C   C223      1.0  0.61056  0.11899  0.39667  1.0000
  C   C224      1.0  0.63117  0.13487  0.39629  1.0000
  C   C225      1.0  0.67737  0.15979  0.37574  1.0000
  C   C226      1.0  0.69774  0.17619  0.37682  1.0000
  C   C227      1.0  0.55421  0.97944  0.40572  1.0000
  C   C228      1.0  0.54928  0.99517  0.40339  1.0000
  C   C229      1.0  0.55075  0.93778  0.38422  1.0000
  C   C230      1.0  0.55468  0.92135  0.38521  1.0000
  C   C231      1.0  0.44407  0.99346  0.39661  1.0000
  C   C232      1.0  0.42351  0.97745  0.39621  1.0000
  C   C233      1.0  0.35706  0.93543  0.37735  1.0000
  C   C234      1.0  0.37733  0.95205  0.37622  1.0000
  H   H129      1.0  0.34687  0.93558  0.42200  1.0000
  H   H130      1.0  0.38119  0.96383  0.42015  1.0000
  H   H131      1.0  0.41670  0.97127  0.45622  1.0000
  H   H132      1.0  0.45153  0.99863  0.45645  1.0000
  H   H133      1.0  0.54661  0.00038  0.46219  1.0000
  H   H134      1.0  0.55530  0.97385  0.46667  1.0000
  H   H135      1.0  0.60317  0.11371  0.45653  1.0000
  H   H136      1.0  0.63811  0.14086  0.45636  1.0000
  H   H137      1.0  0.70792  0.17577  0.42099  1.0000
  H   H138      1.0  0.67341  0.14787  0.41924  1.0000
  H   H139      1.0  0.51598  0.17598  0.42472  1.0000
  H   H140      1.0  0.50967  0.20407  0.42688  1.0000
  H   H141      1.0  0.49929  0.13874  0.46658  1.0000
  H   H142      1.0  0.50765  0.11199  0.46213  1.0000
  H   H143      1.0  0.53915  0.93674  0.42347  1.0000
  H   H144      1.0  0.54602  0.90901  0.42578  1.0000
  C   C235      1.0  0.20886  0.50758  0.36152  1.0000
  C   C236      1.0  0.22594  0.51696  0.41932  1.0000
  N   N37       1.0  0.24249  0.51477  0.40448  1.0000
  C   C237      1.0  0.24410  0.50361  0.33677  1.0000
  C   C238      1.0  0.26279  0.50316  0.32919  1.0000
  C   C239      1.0  0.27482  0.50341  0.40325  1.0000
  C   C240      1.0  0.29348  0.50367  0.38639  1.0000
  H   H145      1.0  0.30203  0.50358  0.43959  1.0000
  H   H146      1.0  0.22625  0.52563  0.47245  1.0000
  N   N38       1.0  0.26789  0.50271  0.49180  1.0000
  O   O13       1.0  0.28036  0.51821  0.53578  1.0000
  O   O14       1.0  0.26512  0.48687  0.53232  1.0000
  C   C241      1.0  0.19174  0.50943  0.37753  1.0000
  H   H147      1.0  0.18735  0.50912  0.44051  1.0000
  C   C242      1.0  0.57758  0.78506  0.36372  1.0000
  C   C243      1.0  0.56822  0.79271  0.42155  1.0000
  N   N39       1.0  0.57042  0.81147  0.40671  1.0000
  C   C244      1.0  0.58157  0.82431  0.33900  1.0000
  C   C245      1.0  0.58202  0.84345  0.33141  1.0000
  C   C246      1.0  0.58177  0.85515  0.40546  1.0000
  C   C247      1.0  0.58152  0.87358  0.38860  1.0000
  H   H148      1.0  0.58160  0.88216  0.44181  1.0000
  H   H149      1.0  0.55954  0.78429  0.47468  1.0000
  N   N40       1.0  0.58248  0.84884  0.49403  1.0000
  O   O15       1.0  0.56699  0.84577  0.53802  1.0000
  O   O16       1.0  0.59832  0.86186  0.53453  1.0000
  C   C248      1.0  0.57572  0.76606  0.37970  1.0000
  H   H150      1.0  0.57606  0.76193  0.44267  1.0000
  C   C249      1.0  0.30006  0.87631  0.36206  1.0000
  C   C250      1.0  0.29235  0.85921  0.41972  1.0000
  N   N41       1.0  0.27362  0.84266  0.40448  1.0000
  C   C251      1.0  0.26086  0.84108  0.33645  1.0000
  C   C252      1.0  0.24173  0.82239  0.32849  1.0000
  C   C253      1.0  0.22995  0.81033  0.40233  1.0000
  C   C254      1.0  0.21154  0.79167  0.38513  1.0000
  H   H151      1.0  0.20291  0.78310  0.43818  1.0000
  H   H152      1.0  0.30071  0.85888  0.47307  1.0000
  N   N42       1.0  0.23616  0.81722  0.49101  1.0000
  O   O17       1.0  0.23919  0.80474  0.53510  1.0000
  O   O18       1.0  0.22310  0.81998  0.53121  1.0000
  C   C255      1.0  0.31902  0.89343  0.37846  1.0000
  H   H153      1.0  0.32309  0.89779  0.44152  1.0000
  C   C256      1.0  0.85039  0.60421  0.36141  1.0000
  C   C257      1.0  0.83335  0.59504  0.41924  1.0000
  N   N43       1.0  0.81698  0.59756  0.40431  1.0000
  C   C258      1.0  0.81554  0.60887  0.33651  1.0000
  C   C259      1.0  0.79702  0.60966  0.32883  1.0000
  C   C260      1.0  0.78515  0.60958  0.40283  1.0000
  C   C261      1.0  0.76663  0.60967  0.38588  1.0000
  H   H154      1.0  0.75819  0.60987  0.43904  1.0000
  H   H155      1.0  0.83292  0.58627  0.47242  1.0000
  N   N44       1.0  0.79207  0.61013  0.49142  1.0000
  O   O19       1.0  0.77946  0.59469  0.53542  1.0000
  O   O20       1.0  0.79513  0.62603  0.53186  1.0000
  C   C262      1.0  0.86733  0.60202  0.37746  1.0000
  H   H156      1.0  0.87182  0.60236  0.44040  1.0000
  C   C263      1.0  0.48096  0.32997  0.36354  1.0000
  C   C264      1.0  0.49014  0.32204  0.42135  1.0000
  N   N45       1.0  0.48763  0.30318  0.40643  1.0000
  C   C265      1.0  0.47632  0.29049  0.33865  1.0000
  C   C266      1.0  0.47553  0.27119  0.33100  1.0000
  C   C267      1.0  0.47561  0.25931  0.40500  1.0000
  C   C268      1.0  0.47552  0.24073  0.38808  1.0000
  H   H157      1.0  0.47531  0.23204  0.44126  1.0000
  H   H158      1.0  0.49891  0.33033  0.47454  1.0000
  N   N46       1.0  0.47506  0.26561  0.49359  1.0000
  O   O21       1.0  0.49049  0.26839  0.53761  1.0000
  O   O22       1.0  0.45915  0.25272  0.53403  1.0000
  C   C269      1.0  0.48313  0.34907  0.37962  1.0000
  H   H159      1.0  0.48282  0.35316  0.44257  1.0000
  C   C270      1.0  0.75527  0.23482  0.36184  1.0000
  C   C271      1.0  0.76327  0.25189  0.41956  1.0000
  N   N47       1.0  0.78212  0.26825  0.40426  1.0000
  C   C272      1.0  0.79473  0.26966  0.33617  1.0000
  C   C273      1.0  0.81402  0.28818  0.32815  1.0000
  C   C274      1.0  0.82598  0.30007  0.40195  1.0000
  C   C275      1.0  0.84455  0.31857  0.38469  1.0000
  H   H160      1.0  0.85331  0.32702  0.43773  1.0000
  H   H161      1.0  0.75504  0.25234  0.47294  1.0000
  N   N48       1.0  0.81978  0.29317  0.49065  1.0000
  O   O23       1.0  0.81705  0.30579  0.53480  1.0000
  O   O24       1.0  0.83271  0.29011  0.53076  1.0000
  C   C276      1.0  0.73617  0.21789  0.37829  1.0000
  H   H162      1.0  0.73217  0.21344  0.44132  1.0000
