data_image0
_chemical_formula_structural       C2NH2NH2C2NH2NH2C2NH2NH2C2NH2NH2C4NH2NH2C4NH2NH2C2NH2NH2C2NH2NH2C4NH2NH2C4NH2NH2C2NH2NH2C2NH2NH2C2NH2NH2C2NH2NH2C4NH2NH2C4NH2NH2C4NH2NH2C4NH2NH2CNCNCNCNCNCNCNCNCNCNCNCNCNCNCNCNCNCNCNCNCNCNCNCNCNCNCNCNCNCNCNCNCNCNCNCNC4NH2NH2C4NH2NH2C4NH2NH2C4NH2NH2C2NH2NH2C2NH2NH2C4NH2NH2C4NH2NH2C2NH2NH2C2NH2NH2C4NH2NH2C4NH2NH2C4NH2NH2C4NH2NH2C2NH2NH2C2NH2NH2C2NH2NH2C2NH2NH2C2NH2NH2C2NH2NH2C2NH2NH2C2NH2NH2C4NH2NH2C4NH2NH2C2NH2NH2C2NH2NH2C4NH2NH2C4NH2NH2C2NH2NH2C2NH2NH2C2NH2NH2C2NH2NH2C4NH2NH2C4NH2NH2C4NH2NH2C4NH2NH2CNCNCNCNCNCNCNCNCNCNCNCNCNCNCNCNCNCNCNCNCNCNCNCNCNCNCNCNCNCNCNCNCNCNCNCNC4NH2NH2C4NH2NH2C4NH2NH2C4NH2NH2C2NH2NH2C2NH2NH2C4NH2NH2C4NH2NH2C2NH2NH2C2NH2NH2C4NH2NH2C4NH2NH2C4NH2NH2C4NH2NH2C2NH2NH2C2NH2NH2C2NH2NH2C2NH2NH2
_chemical_formula_sum              "C288 N216 H288"
_cell_length_a       42.5338
_cell_length_b       55.1435
_cell_length_c       14.8236
_cell_angle_alpha    90
_cell_angle_beta     90
_cell_angle_gamma    90

_space_group_name_H-M_alt    "P 1"
_space_group_IT_number       1

loop_
  _space_group_symop_operation_xyz
  'x, y, z'

loop_
  _atom_site_type_symbol
  _atom_site_label
  _atom_site_symmetry_multiplicity
  _atom_site_fract_x
  _atom_site_fract_y
  _atom_site_fract_z
  _atom_site_occupancy
  C   C1        1.0  0.23929  0.15943  0.29389  1.0000
  C   C2        1.0  0.27280  0.15685  0.30194  1.0000
  N   N1        1.0  0.22422  0.15097  0.21831  1.0000
  H   H1        1.0  0.20266  0.15518  0.20485  1.0000
  H   H2        1.0  0.23568  0.14498  0.16639  1.0000
  N   N2        1.0  0.28787  0.14035  0.24802  1.0000
  H   H3        1.0  0.31031  0.13822  0.24794  1.0000
  H   H4        1.0  0.27646  0.12704  0.22049  1.0000
  C   C3        1.0  0.27254  0.85271  0.29586  1.0000
  C   C4        1.0  0.23906  0.85535  0.30450  1.0000
  N   N3        1.0  0.28754  0.86152  0.22066  1.0000
  H   H5        1.0  0.30896  0.85708  0.20651  1.0000
  H   H6        1.0  0.27589  0.86761  0.16927  1.0000
  N   N4        1.0  0.22406  0.87231  0.25248  1.0000
  H   H7        1.0  0.20165  0.87461  0.25278  1.0000
  H   H8        1.0  0.23552  0.88569  0.22554  1.0000
  C   C5        1.0  0.48940  0.65913  0.29585  1.0000
  C   C6        1.0  0.02289  0.65653  0.30441  1.0000
  N   N5        1.0  0.47443  0.65036  0.22059  1.0000
  H   H9        1.0  0.45294  0.65463  0.20646  1.0000
  H   H10       1.0  0.48597  0.64412  0.16922  1.0000
  N   N6        1.0  0.03794  0.63963  0.25222  1.0000
  H   H11       1.0  0.06036  0.63739  0.25237  1.0000
  H   H12       1.0  0.02651  0.62625  0.22514  1.0000
  C   C7        1.0  0.02264  0.35238  0.29343  1.0000
  C   C8        1.0  0.48911  0.35491  0.30120  1.0000
  N   N7        1.0  0.03776  0.36082  0.21789  1.0000
  H   H13       1.0  0.05935  0.35664  0.20467  1.0000
  H   H14       1.0  0.02634  0.36674  0.16580  1.0000
  N   N8        1.0  0.47402  0.37131  0.24694  1.0000
  H   H15       1.0  0.45155  0.37326  0.24607  1.0000
  H   H16       1.0  0.48532  0.38455  0.21857  1.0000
  C   C9        1.0  0.06193  0.11010  0.34910  1.0000
  C   C10       1.0  0.08754  0.10711  0.28713  1.0000
  C   C11       1.0  0.11343  0.12397  0.28787  1.0000
  C   C12       1.0  0.11284  0.14474  0.34618  1.0000
  N   N9        1.0  0.13779  0.12101  0.22840  1.0000
  H   H17       1.0  0.14255  0.10555  0.20075  1.0000
  H   H18       1.0  0.15324  0.13342  0.21700  1.0000
  N   N10       1.0  0.08497  0.09044  0.21853  1.0000
  H   H19       1.0  0.06656  0.08043  0.21010  1.0000
  H   H20       1.0  0.09873  0.09039  0.16669  1.0000
  C   C13       1.0  0.45012  0.90169  0.34928  1.0000
  C   C14       1.0  0.42437  0.90483  0.28791  1.0000
  C   C15       1.0  0.39839  0.88805  0.28889  1.0000
  C   C16       1.0  0.39905  0.86717  0.34664  1.0000
  N   N11       1.0  0.37386  0.89121  0.23014  1.0000
  H   H21       1.0  0.36911  0.90677  0.20316  1.0000
  H   H22       1.0  0.35828  0.87891  0.21888  1.0000
  N   N12       1.0  0.42687  0.92155  0.21943  1.0000
  H   H23       1.0  0.44536  0.93144  0.21059  1.0000
  H   H24       1.0  0.41298  0.92167  0.16786  1.0000
  C   C17       1.0  0.42239  0.14577  0.26216  1.0000
  C   C18       1.0  0.44826  0.12911  0.26148  1.0000
  N   N13       1.0  0.41690  0.16031  0.18835  1.0000
  H   H25       1.0  0.39724  0.16894  0.18031  1.0000
  H   H26       1.0  0.42870  0.15884  0.13289  1.0000
  N   N14       1.0  0.47074  0.13081  0.19530  1.0000
  H   H27       1.0  0.48564  0.11794  0.18281  1.0000
  H   H28       1.0  0.47419  0.14551  0.16095  1.0000
  C   C19       1.0  0.08983  0.86642  0.26169  1.0000
  C   C20       1.0  0.06401  0.88312  0.26105  1.0000
  N   N15       1.0  0.09561  0.85216  0.18730  1.0000
  H   H29       1.0  0.11522  0.84347  0.17963  1.0000
  H   H30       1.0  0.08410  0.85393  0.13144  1.0000
  N   N16       1.0  0.04178  0.88170  0.19408  1.0000
  H   H31       1.0  0.02683  0.89458  0.18218  1.0000
  H   H32       1.0  0.03846  0.86715  0.15878  1.0000
  C   C21       1.0  0.31171  0.61025  0.34886  1.0000
  C   C22       1.0  0.33743  0.60713  0.28739  1.0000
  C   C23       1.0  0.36343  0.62389  0.28840  1.0000
  C   C24       1.0  0.36282  0.64474  0.34626  1.0000
  N   N17       1.0  0.38794  0.62072  0.22960  1.0000
  H   H33       1.0  0.39266  0.60518  0.20249  1.0000
  H   H34       1.0  0.40356  0.63302  0.21844  1.0000
  N   N18       1.0  0.33489  0.59043  0.21886  1.0000
  H   H35       1.0  0.31638  0.58055  0.21006  1.0000
  H   H36       1.0  0.34875  0.59031  0.16725  1.0000
  C   C25       1.0  0.19994  0.40185  0.34939  1.0000
  C   C26       1.0  0.17432  0.40484  0.28743  1.0000
  C   C27       1.0  0.14844  0.38797  0.28816  1.0000
  C   C28       1.0  0.14904  0.36721  0.34649  1.0000
  N   N19       1.0  0.12409  0.39092  0.22864  1.0000
  H   H37       1.0  0.11932  0.40637  0.20101  1.0000
  H   H38       1.0  0.10866  0.37849  0.21719  1.0000
  N   N20       1.0  0.17689  0.42151  0.21882  1.0000
  H   H39       1.0  0.19531  0.43151  0.21037  1.0000
  H   H40       1.0  0.16313  0.42156  0.16700  1.0000
  C   C29       1.0  0.17170  0.64515  0.26120  1.0000
  C   C30       1.0  0.19748  0.62843  0.26045  1.0000
  N   N21       1.0  0.16562  0.65918  0.18641  1.0000
  H   H41       1.0  0.14605  0.66798  0.17926  1.0000
  H   H42       1.0  0.17682  0.65718  0.13015  1.0000
  N   N22       1.0  0.21942  0.62952  0.19258  1.0000
  H   H43       1.0  0.23441  0.61663  0.18122  1.0000
  H   H44       1.0  0.22250  0.64387  0.15595  1.0000
  C   C31       1.0  0.33930  0.36596  0.26244  1.0000
  C   C32       1.0  0.31342  0.38260  0.26186  1.0000
  N   N23       1.0  0.34459  0.35127  0.18891  1.0000
  H   H45       1.0  0.36427  0.34270  0.18053  1.0000
  H   H46       1.0  0.33261  0.35260  0.13373  1.0000
  N   N24       1.0  0.29076  0.38071  0.19623  1.0000
  H   H47       1.0  0.27588  0.39358  0.18343  1.0000
  H   H48       1.0  0.28716  0.36590  0.16271  1.0000
  C   C33       1.0  0.13508  0.24338  0.27041  1.0000
  C   C34       1.0  0.12693  0.26858  0.27043  1.0000
  N   N25       1.0  0.14147  0.23150  0.19102  1.0000
  H   H49       1.0  0.14688  0.21443  0.18864  1.0000
  H   H50       1.0  0.14467  0.23997  0.13462  1.0000
  N   N26       1.0  0.12063  0.28047  0.19103  1.0000
  H   H51       1.0  0.11514  0.29753  0.18879  1.0000
  H   H52       1.0  0.11735  0.27199  0.13472  1.0000
  C   C35       1.0  0.37690  0.76855  0.26982  1.0000
  C   C36       1.0  0.38507  0.74335  0.26979  1.0000
  N   N27       1.0  0.37056  0.78044  0.19043  1.0000
  H   H53       1.0  0.36506  0.79749  0.18821  1.0000
  H   H54       1.0  0.36727  0.77195  0.13414  1.0000
  N   N28       1.0  0.39143  0.73147  0.19040  1.0000
  H   H55       1.0  0.39688  0.71440  0.18805  1.0000
  H   H56       1.0  0.39459  0.73992  0.13398  1.0000
  C   C37       1.0  0.38818  0.28110  0.33598  1.0000
  C   C38       1.0  0.38565  0.26843  0.25220  1.0000
  C   C39       1.0  0.37619  0.24347  0.25215  1.0000
  C   C40       1.0  0.37367  0.23077  0.33589  1.0000
  N   N29       1.0  0.36907  0.23178  0.17302  1.0000
  H   H57       1.0  0.36615  0.24040  0.11679  1.0000
  H   H58       1.0  0.36239  0.21497  0.17133  1.0000
  N   N30       1.0  0.39279  0.28013  0.17312  1.0000
  H   H59       1.0  0.39942  0.29696  0.17144  1.0000
  H   H60       1.0  0.39563  0.27156  0.11674  1.0000
  C   C41       1.0  0.12370  0.73076  0.33426  1.0000
  C   C42       1.0  0.12620  0.74347  0.25054  1.0000
  C   C43       1.0  0.13568  0.76842  0.25060  1.0000
  C   C44       1.0  0.13819  0.78109  0.33439  1.0000
  N   N31       1.0  0.14283  0.78014  0.17158  1.0000
  H   H61       1.0  0.14556  0.77161  0.11509  1.0000
  H   H62       1.0  0.14943  0.79697  0.16990  1.0000
  N   N32       1.0  0.11903  0.73177  0.17149  1.0000
  H   H63       1.0  0.11243  0.71494  0.16971  1.0000
  H   H64       1.0  0.11628  0.74033  0.11506  1.0000
  C   C45       1.0  0.00587  0.97992  0.33855  1.0000
  C   C46       1.0  0.00700  0.99290  0.25503  1.0000
  C   C47       1.0  0.00487  0.01891  0.25491  1.0000
  C   C48       1.0  0.00603  0.03195  0.33831  1.0000
  N   N33       1.0  0.00128  0.03144  0.17559  1.0000
  H   H65       1.0  0.99579  0.02348  0.11962  1.0000
  H   H66       1.0  0.99956  0.04897  0.17361  1.0000
  N   N34       1.0  0.01062  0.98031  0.17586  1.0000
  H   H67       1.0  0.01224  0.96278  0.17386  1.0000
  H   H68       1.0  0.01597  0.98822  0.11965  1.0000
  C   C49       1.0  0.25588  0.47998  0.33827  1.0000
  C   C50       1.0  0.25708  0.49304  0.25493  1.0000
  C   C51       1.0  0.25495  0.51905  0.25511  1.0000
  C   C52       1.0  0.25603  0.53201  0.33869  1.0000
  N   N35       1.0  0.25139  0.53165  0.17593  1.0000
  H   H69       1.0  0.24594  0.52373  0.11983  1.0000
  H   H70       1.0  0.24965  0.54918  0.17415  1.0000
  N   N36       1.0  0.26074  0.48052  0.17562  1.0000
  H   H71       1.0  0.26236  0.46298  0.17343  1.0000
  H   H72       1.0  0.26612  0.48847  0.11953  1.0000
  C   C53       1.0  0.18930  0.17758  0.35047  1.0000
  N   N37       1.0  0.16764  0.15934  0.34329  1.0000
  C   C54       1.0  0.13592  0.16361  0.34208  1.0000
  N   N38       1.0  0.12649  0.18729  0.34763  1.0000
  C   C55       1.0  0.14728  0.20594  0.35347  1.0000
  N   N39       1.0  0.17835  0.20069  0.35597  1.0000
  C   C56       1.0  0.32258  0.83429  0.35108  1.0000
  N   N40       1.0  0.34422  0.85255  0.34401  1.0000
  C   C57       1.0  0.37595  0.84831  0.34243  1.0000
  N   N41       1.0  0.38541  0.82463  0.34741  1.0000
  C   C58       1.0  0.36466  0.80595  0.35302  1.0000
  N   N42       1.0  0.33358  0.81118  0.35594  1.0000
  C   C59       1.0  0.32273  0.17706  0.34975  1.0000
  N   N43       1.0  0.34497  0.15924  0.34634  1.0000
  C   C60       1.0  0.37646  0.16367  0.33854  1.0000
  N   N44       1.0  0.38544  0.18742  0.33298  1.0000
  C   C61       1.0  0.36432  0.20591  0.33652  1.0000
  N   N45       1.0  0.33344  0.20032  0.34533  1.0000
  C   C62       1.0  0.18911  0.83480  0.35044  1.0000
  N   N46       1.0  0.16684  0.85260  0.34728  1.0000
  C   C63       1.0  0.13538  0.84816  0.33870  1.0000
  N   N47       1.0  0.12642  0.82442  0.33206  1.0000
  C   C64       1.0  0.14757  0.80595  0.33532  1.0000
  N   N48       1.0  0.17842  0.81155  0.34495  1.0000
  C   C65       1.0  0.43935  0.67755  0.35095  1.0000
  N   N49       1.0  0.41768  0.65931  0.34380  1.0000
  C   C66       1.0  0.38595  0.66358  0.34210  1.0000
  N   N50       1.0  0.37654  0.68727  0.34716  1.0000
  C   C67       1.0  0.39731  0.70593  0.35290  1.0000
  N   N51       1.0  0.42838  0.70067  0.35588  1.0000
  C   C68       1.0  0.07261  0.33433  0.35045  1.0000
  N   N52       1.0  0.09425  0.35258  0.34340  1.0000
  C   C69       1.0  0.12598  0.34832  0.34235  1.0000
  N   N53       1.0  0.13543  0.32465  0.34788  1.0000
  C   C70       1.0  0.11466  0.30598  0.35359  1.0000
  N   N54       1.0  0.08358  0.31122  0.35596  1.0000
  C   C71       1.0  0.07282  0.67704  0.35064  1.0000
  N   N55       1.0  0.09509  0.65924  0.34774  1.0000
  C   C72       1.0  0.12654  0.66372  0.33899  1.0000
  N   N56       1.0  0.13550  0.68744  0.33198  1.0000
  C   C73       1.0  0.11434  0.70590  0.33509  1.0000
  N   N57       1.0  0.08349  0.70030  0.34490  1.0000
  C   C74       1.0  0.43917  0.33479  0.34944  1.0000
  N   N58       1.0  0.41696  0.35262  0.34591  1.0000
  C   C75       1.0  0.38545  0.34822  0.33832  1.0000
  N   N59       1.0  0.37645  0.32446  0.33304  1.0000
  C   C76       1.0  0.39756  0.30596  0.33669  1.0000
  N   N60       1.0  0.42845  0.31153  0.34528  1.0000
  C   C77       1.0  0.03411  0.09565  0.34243  1.0000
  N   N61       1.0  0.03352  0.07085  0.34192  1.0000
  C   C78       1.0  0.00601  0.05807  0.33809  1.0000
  N   N62       1.0  0.47843  0.07073  0.33374  1.0000
  C   C79       1.0  0.47775  0.09551  0.33158  1.0000
  N   N63       1.0  0.00589  0.10711  0.33651  1.0000
  C   C80       1.0  0.47792  0.91616  0.34263  1.0000
  N   N64       1.0  0.47847  0.94097  0.34220  1.0000
  C   C81       1.0  0.50595  0.95380  0.33852  1.0000
  N   N65       1.0  0.03357  0.94118  0.33430  1.0000
  C   C82       1.0  0.03429  0.91641  0.33205  1.0000
  N   N66       1.0  0.50618  0.90475  0.33670  1.0000
  C   C83       1.0  0.28390  0.59579  0.34231  1.0000
  N   N67       1.0  0.28339  0.57098  0.34204  1.0000
  C   C84       1.0  0.25592  0.55813  0.33876  1.0000
  N   N68       1.0  0.22828  0.57071  0.33484  1.0000
  C   C85       1.0  0.22755  0.59548  0.33239  1.0000
  N   N69       1.0  0.25563  0.60719  0.33655  1.0000
  C   C86       1.0  0.22776  0.41629  0.34268  1.0000
  N   N70       1.0  0.22837  0.44109  0.34205  1.0000
  C   C87       1.0  0.25588  0.45386  0.33796  1.0000
  N   N71       1.0  0.28345  0.44118  0.33342  1.0000
  C   C88       1.0  0.28413  0.41640  0.33141  1.0000
  N   N72       1.0  0.25598  0.40482  0.33665  1.0000
  C   C89       1.0  0.28979  0.17296  0.36030  1.0000
  C   C90       1.0  0.27268  0.18715  0.42483  1.0000
  C   C91       1.0  0.23913  0.18571  0.42849  1.0000
  C   C92       1.0  0.22231  0.17375  0.35783  1.0000
  N   N73       1.0  0.22310  0.19341  0.50376  1.0000
  H   H73       1.0  0.23382  0.19793  0.55880  1.0000
  H   H74       1.0  0.20110  0.18941  0.51268  1.0000
  N   N74       1.0  0.28832  0.20071  0.48814  1.0000
  H   H75       1.0  0.31064  0.19894  0.49957  1.0000
  H   H76       1.0  0.27810  0.21333  0.52293  1.0000
  C   C93       1.0  0.22205  0.83890  0.36148  1.0000
  C   C94       1.0  0.23919  0.82435  0.42483  1.0000
  C   C95       1.0  0.27274  0.82578  0.42858  1.0000
  C   C96       1.0  0.28956  0.83806  0.35867  1.0000
  N   N75       1.0  0.28876  0.81778  0.50345  1.0000
  H   H77       1.0  0.27801  0.81302  0.55817  1.0000
  H   H78       1.0  0.31073  0.82181  0.51272  1.0000
  N   N76       1.0  0.22358  0.81046  0.48721  1.0000
  H   H79       1.0  0.20127  0.81221  0.49898  1.0000
  H   H80       1.0  0.23382  0.79766  0.52100  1.0000
  C   C97       1.0  0.03988  0.67294  0.36160  1.0000
  C   C98       1.0  0.02272  0.68748  0.42496  1.0000
  C   C99       1.0  0.48917  0.68602  0.42865  1.0000
  C   C100      1.0  0.47237  0.67376  0.35868  1.0000
  N   N77       1.0  0.47314  0.69403  0.50349  1.0000
  H   H81       1.0  0.48388  0.69878  0.55824  1.0000
  H   H82       1.0  0.45117  0.68999  0.51272  1.0000
  N   N78       1.0  0.03832  0.70137  0.48735  1.0000
  H   H83       1.0  0.06064  0.69967  0.49901  1.0000
  H   H84       1.0  0.02806  0.71418  0.52110  1.0000
  C   C101      1.0  0.47212  0.33888  0.35987  1.0000
  C   C102      1.0  0.48922  0.32477  0.42468  1.0000
  C   C103      1.0  0.02276  0.32621  0.42833  1.0000
  C   C104      1.0  0.03960  0.33813  0.35764  1.0000
  N   N79       1.0  0.03878  0.31857  0.50368  1.0000
  H   H85       1.0  0.02816  0.31389  0.55872  1.0000
  H   H86       1.0  0.06083  0.32244  0.51267  1.0000
  N   N80       1.0  0.47355  0.31132  0.48824  1.0000
  H   H87       1.0  0.45122  0.31311  0.49958  1.0000
  H   H88       1.0  0.48374  0.29874  0.52331  1.0000
  C   C105      1.0  0.08888  0.14614  0.41395  1.0000
  C   C106      1.0  0.06273  0.12976  0.41238  1.0000
  N   N81       1.0  0.09362  0.16070  0.48816  1.0000
  H   H89       1.0  0.11348  0.16885  0.49879  1.0000
  H   H90       1.0  0.08099  0.15945  0.54219  1.0000
  N   N82       1.0  0.03933  0.13217  0.47555  1.0000
  H   H91       1.0  0.02429  0.11942  0.48840  1.0000
  H   H92       1.0  0.03543  0.14725  0.50710  1.0000
  C   C107      1.0  0.42317  0.86562  0.41393  1.0000
  C   C108      1.0  0.44938  0.88194  0.41221  1.0000
  N   N83       1.0  0.41851  0.85096  0.48797  1.0000
  H   H93       1.0  0.39857  0.84296  0.49871  1.0000
  H   H94       1.0  0.43122  0.85225  0.54181  1.0000
  N   N84       1.0  0.47291  0.87938  0.47489  1.0000
  H   H95       1.0  0.48793  0.89212  0.48806  1.0000
  H   H96       1.0  0.47680  0.86425  0.50619  1.0000
  C   C109      1.0  0.44987  0.10989  0.32648  1.0000
  C   C110      1.0  0.42551  0.10761  0.39283  1.0000
  C   C111      1.0  0.39982  0.12464  0.39410  1.0000
  C   C112      1.0  0.39947  0.14481  0.33287  1.0000
  N   N85       1.0  0.37681  0.12243  0.45839  1.0000
  H   H97       1.0  0.37244  0.10723  0.48850  1.0000
  H   H98       1.0  0.36209  0.13520  0.47251  1.0000
  N   N86       1.0  0.42928  0.09154  0.46299  1.0000
  H   H99       1.0  0.44764  0.08137  0.46922  1.0000
  H   H100      1.0  0.41668  0.09210  0.51715  1.0000
  C   C113      1.0  0.06219  0.90208  0.32703  1.0000
  C   C114      1.0  0.08621  0.90401  0.39457  1.0000
  C   C115      1.0  0.11174  0.88686  0.39610  1.0000
  C   C116      1.0  0.11239  0.86702  0.33339  1.0000
  N   N87       1.0  0.13435  0.88857  0.46178  1.0000
  H   H101      1.0  0.13853  0.90349  0.49398  1.0000
  H   H102      1.0  0.14884  0.87563  0.47570  1.0000
  N   N88       1.0  0.08217  0.91992  0.46510  1.0000
  H   H103      1.0  0.06398  0.93031  0.47071  1.0000
  H   H104      1.0  0.09450  0.91921  0.51973  1.0000
  C   C117      1.0  0.33870  0.64631  0.41354  1.0000
  C   C118      1.0  0.31249  0.62999  0.41185  1.0000
  N   N89       1.0  0.34338  0.66095  0.48758  1.0000
  H   H105      1.0  0.36326  0.66903  0.49843  1.0000
  H   H106      1.0  0.33062  0.65982  0.54140  1.0000
  N   N90       1.0  0.28900  0.63253  0.47470  1.0000
  H   H107      1.0  0.27396  0.61981  0.48779  1.0000
  H   H108      1.0  0.28509  0.64767  0.50588  1.0000
  C   C119      1.0  0.17299  0.36582  0.41432  1.0000
  C   C120      1.0  0.19914  0.38219  0.41269  1.0000
  N   N91       1.0  0.16822  0.35126  0.48856  1.0000
  H   H109      1.0  0.14830  0.34320  0.49906  1.0000
  H   H110      1.0  0.18079  0.35268  0.54263  1.0000
  N   N92       1.0  0.22258  0.37976  0.47574  1.0000
  H   H111      1.0  0.23761  0.39252  0.48863  1.0000
  H   H112      1.0  0.22643  0.36470  0.50749  1.0000
  C   C121      1.0  0.19963  0.60978  0.32754  1.0000
  C   C122      1.0  0.17603  0.60819  0.39638  1.0000
  C   C123      1.0  0.15052  0.62536  0.39797  1.0000
  C   C124      1.0  0.14952  0.64486  0.33388  1.0000
  N   N93       1.0  0.12828  0.62401  0.46482  1.0000
  H   H113      1.0  0.12432  0.60928  0.49836  1.0000
  H   H114      1.0  0.11369  0.63696  0.47788  1.0000
  N   N94       1.0  0.18042  0.59258  0.46767  1.0000
  H   H115      1.0  0.19859  0.58215  0.47275  1.0000
  H   H116      1.0  0.16844  0.59356  0.52288  1.0000
  C   C125      1.0  0.31199  0.40200  0.32618  1.0000
  C   C126      1.0  0.33661  0.40448  0.39167  1.0000
  C   C127      1.0  0.36230  0.38745  0.39286  1.0000
  C   C128      1.0  0.36245  0.36709  0.33251  1.0000
  N   N95       1.0  0.38555  0.38988  0.45633  1.0000
  H   H117      1.0  0.39002  0.40517  0.48571  1.0000
  H   H118      1.0  0.40022  0.37712  0.47097  1.0000
  N   N96       1.0  0.33305  0.42073  0.46133  1.0000
  H   H119      1.0  0.31471  0.43090  0.46795  1.0000
  H   H120      1.0  0.34586  0.42032  0.51512  1.0000
  C   C129      1.0  0.12428  0.28120  0.35437  1.0000
  C   C130      1.0  0.12735  0.26866  0.43841  1.0000
  C   C131      1.0  0.13455  0.24324  0.43838  1.0000
  C   C132      1.0  0.13767  0.23073  0.35431  1.0000
  N   N97       1.0  0.13929  0.23076  0.51742  1.0000
  H   H121      1.0  0.14076  0.23853  0.57555  1.0000
  H   H122      1.0  0.14364  0.21350  0.51883  1.0000
  N   N98       1.0  0.12255  0.28112  0.51746  1.0000
  H   H123      1.0  0.11825  0.29840  0.51896  1.0000
  H   H124      1.0  0.12110  0.27335  0.57560  1.0000
  C   C133      1.0  0.38770  0.73072  0.35369  1.0000
  C   C134      1.0  0.38460  0.74322  0.43777  1.0000
  C   C135      1.0  0.37742  0.76865  0.43780  1.0000
  C   C136      1.0  0.37429  0.78117  0.35375  1.0000
  N   N99       1.0  0.37273  0.78112  0.51686  1.0000
  H   H125      1.0  0.37132  0.77337  0.57502  1.0000
  H   H126      1.0  0.36843  0.79840  0.51833  1.0000
  N   N100      1.0  0.38932  0.73074  0.51680  1.0000
  H   H127      1.0  0.39358  0.71345  0.51825  1.0000
  H   H128      1.0  0.39069  0.73847  0.57500  1.0000
  C   C137      1.0  0.37827  0.24309  0.41974  1.0000
  C   C138      1.0  0.38361  0.26876  0.41978  1.0000
  N   N101      1.0  0.37815  0.23015  0.49885  1.0000
  H   H129      1.0  0.37542  0.21266  0.50033  1.0000
  H   H130      1.0  0.38523  0.23696  0.55530  1.0000
  N   N102      1.0  0.38376  0.28168  0.49895  1.0000
  H   H131      1.0  0.38649  0.29917  0.50049  1.0000
  H   H132      1.0  0.37670  0.27485  0.55539  1.0000
  C   C139      1.0  0.13355  0.76875  0.41814  1.0000
  C   C140      1.0  0.12837  0.74307  0.41808  1.0000
  N   N103      1.0  0.13342  0.78165  0.49732  1.0000
  H   H133      1.0  0.13598  0.79916  0.49893  1.0000
  H   H134      1.0  0.12616  0.77479  0.55353  1.0000
  N   N104      1.0  0.12853  0.73015  0.49723  1.0000
  H   H135      1.0  0.12603  0.71264  0.49860  1.0000
  H   H136      1.0  0.13586  0.73698  0.55340  1.0000
  C   C141      1.0  0.00707  0.01896  0.42184  1.0000
  C   C142      1.0  0.00481  0.99295  0.42197  1.0000
  N   N105      1.0  0.01070  0.03156  0.50098  1.0000
  H   H137      1.0  0.01246  0.04909  0.50285  1.0000
  H   H138      1.0  0.01591  0.02366  0.55729  1.0000
  N   N106      1.0  0.00120  0.98040  0.50123  1.0000
  H   H139      1.0  0.99933  0.96288  0.50311  1.0000
  H   H140      1.0  0.99583  0.98837  0.55728  1.0000
  C   C143      1.0  0.25704  0.51895  0.42207  1.0000
  C   C144      1.0  0.25479  0.49295  0.42184  1.0000
  N   N107      1.0  0.26062  0.53149  0.50138  1.0000
  H   H141      1.0  0.26252  0.54901  0.50331  1.0000
  H   H142      1.0  0.26597  0.52350  0.55742  1.0000
  N   N108      1.0  0.25112  0.48033  0.50092  1.0000
  H   H143      1.0  0.24939  0.46279  0.50275  1.0000
  H   H144      1.0  0.24588  0.48822  0.55723  1.0000
  C   C145      1.0  0.73929  0.15943  0.29389  1.0000
  C   C146      1.0  0.77280  0.15685  0.30194  1.0000
  N   N109      1.0  0.72422  0.15097  0.21831  1.0000
  H   H145      1.0  0.70266  0.15518  0.20485  1.0000
  H   H146      1.0  0.73568  0.14498  0.16639  1.0000
  N   N110      1.0  0.78787  0.14035  0.24802  1.0000
  H   H147      1.0  0.81031  0.13822  0.24794  1.0000
  H   H148      1.0  0.77646  0.12704  0.22049  1.0000
  C   C147      1.0  0.77255  0.85271  0.29587  1.0000
  C   C148      1.0  0.73906  0.85535  0.30451  1.0000
  N   N111      1.0  0.78754  0.86152  0.22066  1.0000
  H   H149      1.0  0.80897  0.85708  0.20652  1.0000
  H   H150      1.0  0.77590  0.86761  0.16928  1.0000
  N   N112      1.0  0.72406  0.87231  0.25249  1.0000
  H   H151      1.0  0.70165  0.87462  0.25279  1.0000
  H   H152      1.0  0.73552  0.88569  0.22555  1.0000
  C   C149      1.0  0.98940  0.65913  0.29585  1.0000
  C   C150      1.0  0.52289  0.65653  0.30441  1.0000
  N   N113      1.0  0.97443  0.65036  0.22059  1.0000
  H   H153      1.0  0.95294  0.65463  0.20646  1.0000
  H   H154      1.0  0.98597  0.64412  0.16921  1.0000
  N   N114      1.0  0.53794  0.63963  0.25222  1.0000
  H   H155      1.0  0.56036  0.63739  0.25237  1.0000
  H   H156      1.0  0.52651  0.62625  0.22515  1.0000
  C   C151      1.0  0.52264  0.35238  0.29343  1.0000
  C   C152      1.0  0.98912  0.35491  0.30120  1.0000
  N   N115      1.0  0.53776  0.36082  0.21789  1.0000
  H   H157      1.0  0.55935  0.35664  0.20467  1.0000
  H   H158      1.0  0.52634  0.36674  0.16580  1.0000
  N   N116      1.0  0.97402  0.37131  0.24694  1.0000
  H   H159      1.0  0.95155  0.37326  0.24607  1.0000
  H   H160      1.0  0.98532  0.38455  0.21857  1.0000
  C   C153      1.0  0.56193  0.11010  0.34910  1.0000
  C   C154      1.0  0.58754  0.10711  0.28713  1.0000
  C   C155      1.0  0.61343  0.12397  0.28787  1.0000
  C   C156      1.0  0.61284  0.14474  0.34618  1.0000
  N   N117      1.0  0.63779  0.12101  0.22840  1.0000
  H   H161      1.0  0.64255  0.10555  0.20075  1.0000
  H   H162      1.0  0.65324  0.13342  0.21701  1.0000
  N   N118      1.0  0.58497  0.09044  0.21852  1.0000
  H   H163      1.0  0.56656  0.08044  0.21010  1.0000
  H   H164      1.0  0.59873  0.09039  0.16669  1.0000
  C   C157      1.0  0.95012  0.90169  0.34929  1.0000
  C   C158      1.0  0.92437  0.90483  0.28791  1.0000
  C   C159      1.0  0.89839  0.88804  0.28889  1.0000
  C   C160      1.0  0.89906  0.86717  0.34664  1.0000
  N   N119      1.0  0.87387  0.89121  0.23012  1.0000
  H   H165      1.0  0.86911  0.90675  0.20314  1.0000
  H   H166      1.0  0.85828  0.87889  0.21886  1.0000
  N   N120      1.0  0.92687  0.92154  0.21943  1.0000
  H   H167      1.0  0.94536  0.93144  0.21060  1.0000
  H   H168      1.0  0.91299  0.92167  0.16788  1.0000
  C   C161      1.0  0.92239  0.14577  0.26216  1.0000
  C   C162      1.0  0.94826  0.12911  0.26148  1.0000
  N   N121      1.0  0.91690  0.16031  0.18835  1.0000
  H   H169      1.0  0.89725  0.16894  0.18031  1.0000
  H   H170      1.0  0.92870  0.15884  0.13289  1.0000
  N   N122      1.0  0.97074  0.13081  0.19530  1.0000
  H   H171      1.0  0.98564  0.11794  0.18281  1.0000
  H   H172      1.0  0.97419  0.14551  0.16095  1.0000
  C   C163      1.0  0.58983  0.86642  0.26168  1.0000
  C   C164      1.0  0.56402  0.88312  0.26104  1.0000
  N   N123      1.0  0.59561  0.85216  0.18730  1.0000
  H   H173      1.0  0.61523  0.84347  0.17962  1.0000
  H   H174      1.0  0.58410  0.85393  0.13143  1.0000
  N   N124      1.0  0.54178  0.88170  0.19407  1.0000
  H   H175      1.0  0.52683  0.89458  0.18218  1.0000
  H   H176      1.0  0.53847  0.86715  0.15877  1.0000
  C   C165      1.0  0.81171  0.61025  0.34886  1.0000
  C   C166      1.0  0.83744  0.60713  0.28739  1.0000
  C   C167      1.0  0.86343  0.62389  0.28840  1.0000
  C   C168      1.0  0.86282  0.64474  0.34626  1.0000
  N   N125      1.0  0.88795  0.62072  0.22961  1.0000
  H   H177      1.0  0.89266  0.60518  0.20249  1.0000
  H   H178      1.0  0.90356  0.63301  0.21845  1.0000
  N   N126      1.0  0.83489  0.59043  0.21886  1.0000
  H   H179      1.0  0.81638  0.58055  0.21006  1.0000
  H   H180      1.0  0.84875  0.59031  0.16725  1.0000
  C   C169      1.0  0.69994  0.40185  0.34939  1.0000
  C   C170      1.0  0.67432  0.40484  0.28743  1.0000
  C   C171      1.0  0.64844  0.38797  0.28816  1.0000
  C   C172      1.0  0.64904  0.36721  0.34649  1.0000
  N   N127      1.0  0.62409  0.39092  0.22864  1.0000
  H   H181      1.0  0.61932  0.40638  0.20101  1.0000
  H   H182      1.0  0.60866  0.37849  0.21719  1.0000
  N   N128      1.0  0.67689  0.42151  0.21882  1.0000
  H   H183      1.0  0.69530  0.43151  0.21037  1.0000
  H   H184      1.0  0.66313  0.42156  0.16700  1.0000
  C   C173      1.0  0.67170  0.64515  0.26120  1.0000
  C   C174      1.0  0.69749  0.62843  0.26044  1.0000
  N   N129      1.0  0.66562  0.65918  0.18641  1.0000
  H   H185      1.0  0.64605  0.66798  0.17926  1.0000
  H   H186      1.0  0.67682  0.65718  0.13015  1.0000
  N   N130      1.0  0.71942  0.62952  0.19258  1.0000
  H   H187      1.0  0.73441  0.61663  0.18122  1.0000
  H   H188      1.0  0.72249  0.64387  0.15595  1.0000
  C   C175      1.0  0.83929  0.36596  0.26244  1.0000
  C   C176      1.0  0.81342  0.38260  0.26186  1.0000
  N   N131      1.0  0.84459  0.35127  0.18891  1.0000
  H   H189      1.0  0.86427  0.34270  0.18053  1.0000
  H   H190      1.0  0.83260  0.35260  0.13373  1.0000
  N   N132      1.0  0.79076  0.38071  0.19623  1.0000
  H   H191      1.0  0.77588  0.39358  0.18343  1.0000
  H   H192      1.0  0.78716  0.36590  0.16271  1.0000
  C   C177      1.0  0.63508  0.24338  0.27041  1.0000
  C   C178      1.0  0.62693  0.26858  0.27043  1.0000
  N   N133      1.0  0.64147  0.23150  0.19102  1.0000
  H   H193      1.0  0.64688  0.21443  0.18864  1.0000
  H   H194      1.0  0.64467  0.23997  0.13462  1.0000
  N   N134      1.0  0.62063  0.28047  0.19103  1.0000
  H   H195      1.0  0.61514  0.29753  0.18879  1.0000
  H   H196      1.0  0.61735  0.27199  0.13472  1.0000
  C   C179      1.0  0.87690  0.76854  0.26983  1.0000
  C   C180      1.0  0.88507  0.74335  0.26979  1.0000
  N   N135      1.0  0.87056  0.78044  0.19044  1.0000
  H   H197      1.0  0.86506  0.79749  0.18822  1.0000
  H   H198      1.0  0.86727  0.77195  0.13415  1.0000
  N   N136      1.0  0.89143  0.73147  0.19040  1.0000
  H   H199      1.0  0.89688  0.71440  0.18806  1.0000
  H   H200      1.0  0.89459  0.73992  0.13398  1.0000
  C   C181      1.0  0.88818  0.28110  0.33598  1.0000
  C   C182      1.0  0.88565  0.26843  0.25220  1.0000
  C   C183      1.0  0.87619  0.24347  0.25215  1.0000
  C   C184      1.0  0.87367  0.23077  0.33589  1.0000
  N   N137      1.0  0.86907  0.23178  0.17302  1.0000
  H   H201      1.0  0.86615  0.24040  0.11679  1.0000
  H   H202      1.0  0.86239  0.21497  0.17133  1.0000
  N   N138      1.0  0.89279  0.28013  0.17312  1.0000
  H   H203      1.0  0.89942  0.29696  0.17144  1.0000
  H   H204      1.0  0.89563  0.27156  0.11674  1.0000
  C   C185      1.0  0.62370  0.73076  0.33426  1.0000
  C   C186      1.0  0.62620  0.74347  0.25054  1.0000
  C   C187      1.0  0.63568  0.76842  0.25060  1.0000
  C   C188      1.0  0.63819  0.78109  0.33439  1.0000
  N   N139      1.0  0.64283  0.78014  0.17158  1.0000
  H   H205      1.0  0.64556  0.77161  0.11509  1.0000
  H   H206      1.0  0.64943  0.79697  0.16990  1.0000
  N   N140      1.0  0.61903  0.73177  0.17149  1.0000
  H   H207      1.0  0.61243  0.71494  0.16971  1.0000
  H   H208      1.0  0.61628  0.74033  0.11506  1.0000
  C   C189      1.0  0.50587  0.97992  0.33855  1.0000
  C   C190      1.0  0.50701  0.99290  0.25503  1.0000
  C   C191      1.0  0.50488  0.01891  0.25490  1.0000
  C   C192      1.0  0.50603  0.03195  0.33831  1.0000
  N   N141      1.0  0.50129  0.03144  0.17558  1.0000
  H   H209      1.0  0.49579  0.02348  0.11961  1.0000
  H   H210      1.0  0.49956  0.04897  0.17361  1.0000
  N   N142      1.0  0.51062  0.98032  0.17585  1.0000
  H   H211      1.0  0.51224  0.96278  0.17386  1.0000
  H   H212      1.0  0.51597  0.98822  0.11964  1.0000
  C   C193      1.0  0.75588  0.47998  0.33827  1.0000
  C   C194      1.0  0.75708  0.49304  0.25492  1.0000
  C   C195      1.0  0.75495  0.51905  0.25511  1.0000
  C   C196      1.0  0.75603  0.53201  0.33869  1.0000
  N   N143      1.0  0.75139  0.53165  0.17593  1.0000
  H   H213      1.0  0.74594  0.52373  0.11983  1.0000
  H   H214      1.0  0.74965  0.54918  0.17415  1.0000
  N   N144      1.0  0.76074  0.48052  0.17562  1.0000
  H   H215      1.0  0.76236  0.46298  0.17342  1.0000
  H   H216      1.0  0.76612  0.48847  0.11953  1.0000
  C   C197      1.0  0.68930  0.17758  0.35047  1.0000
  N   N145      1.0  0.66765  0.15934  0.34329  1.0000
  C   C198      1.0  0.63592  0.16361  0.34208  1.0000
  N   N146      1.0  0.62649  0.18729  0.34763  1.0000
  C   C199      1.0  0.64728  0.20594  0.35347  1.0000
  N   N147      1.0  0.67835  0.20069  0.35597  1.0000
  C   C200      1.0  0.82258  0.83429  0.35108  1.0000
  N   N148      1.0  0.84422  0.85255  0.34401  1.0000
  C   C201      1.0  0.87595  0.84831  0.34244  1.0000
  N   N149      1.0  0.88541  0.82463  0.34742  1.0000
  C   C202      1.0  0.86465  0.80595  0.35303  1.0000
  N   N150      1.0  0.83358  0.81118  0.35595  1.0000
  C   C203      1.0  0.82273  0.17706  0.34975  1.0000
  N   N151      1.0  0.84497  0.15924  0.34634  1.0000
  C   C204      1.0  0.87646  0.16367  0.33854  1.0000
  N   N152      1.0  0.88544  0.18742  0.33298  1.0000
  C   C205      1.0  0.86432  0.20591  0.33652  1.0000
  N   N153      1.0  0.83344  0.20032  0.34533  1.0000
  C   C206      1.0  0.68911  0.83480  0.35044  1.0000
  N   N154      1.0  0.66684  0.85260  0.34728  1.0000
  C   C207      1.0  0.63538  0.84816  0.33869  1.0000
  N   N155      1.0  0.62642  0.82442  0.33206  1.0000
  C   C208      1.0  0.64757  0.80595  0.33532  1.0000
  N   N156      1.0  0.67842  0.81155  0.34495  1.0000
  C   C209      1.0  0.93935  0.67755  0.35095  1.0000
  N   N157      1.0  0.91768  0.65931  0.34379  1.0000
  C   C210      1.0  0.88595  0.66358  0.34210  1.0000
  N   N158      1.0  0.87653  0.68727  0.34716  1.0000
  C   C211      1.0  0.89731  0.70593  0.35290  1.0000
  N   N159      1.0  0.92838  0.70067  0.35588  1.0000
  C   C212      1.0  0.57261  0.33433  0.35045  1.0000
  N   N160      1.0  0.59425  0.35258  0.34340  1.0000
  C   C213      1.0  0.62598  0.34832  0.34235  1.0000
  N   N161      1.0  0.63543  0.32465  0.34788  1.0000
  C   C214      1.0  0.61466  0.30598  0.35359  1.0000
  N   N162      1.0  0.58358  0.31122  0.35596  1.0000
  C   C215      1.0  0.57282  0.67704  0.35064  1.0000
  N   N163      1.0  0.59509  0.65924  0.34774  1.0000
  C   C216      1.0  0.62654  0.66372  0.33899  1.0000
  N   N164      1.0  0.63550  0.68744  0.33198  1.0000
  C   C217      1.0  0.61433  0.70590  0.33509  1.0000
  N   N165      1.0  0.58349  0.70030  0.34490  1.0000
  C   C218      1.0  0.93917  0.33479  0.34944  1.0000
  N   N166      1.0  0.91696  0.35262  0.34591  1.0000
  C   C219      1.0  0.88545  0.34822  0.33832  1.0000
  N   N167      1.0  0.87645  0.32446  0.33304  1.0000
  C   C220      1.0  0.89756  0.30596  0.33669  1.0000
  N   N168      1.0  0.92845  0.31153  0.34528  1.0000
  C   C221      1.0  0.53411  0.09565  0.34243  1.0000
  N   N169      1.0  0.53352  0.07085  0.34191  1.0000
  C   C222      1.0  0.50601  0.05807  0.33809  1.0000
  N   N170      1.0  0.97843  0.07073  0.33374  1.0000
  C   C223      1.0  0.97775  0.09551  0.33158  1.0000
  N   N171      1.0  0.50589  0.10711  0.33651  1.0000
  C   C224      1.0  0.97793  0.91616  0.34264  1.0000
  N   N172      1.0  0.97847  0.94097  0.34221  1.0000
  C   C225      1.0  0.00595  0.95380  0.33853  1.0000
  N   N173      1.0  0.53357  0.94118  0.33429  1.0000
  C   C226      1.0  0.53429  0.91641  0.33204  1.0000
  N   N174      1.0  0.00618  0.90475  0.33671  1.0000
  C   C227      1.0  0.78390  0.59578  0.34231  1.0000
  N   N175      1.0  0.78339  0.57098  0.34204  1.0000
  C   C228      1.0  0.75592  0.55813  0.33876  1.0000
  N   N176      1.0  0.72827  0.57071  0.33484  1.0000
  C   C229      1.0  0.72755  0.59548  0.33239  1.0000
  N   N177      1.0  0.75563  0.60719  0.33655  1.0000
  C   C230      1.0  0.72776  0.41629  0.34268  1.0000
  N   N178      1.0  0.72837  0.44109  0.34205  1.0000
  C   C231      1.0  0.75588  0.45386  0.33796  1.0000
  N   N179      1.0  0.78345  0.44118  0.33342  1.0000
  C   C232      1.0  0.78413  0.41640  0.33141  1.0000
  N   N180      1.0  0.75597  0.40482  0.33665  1.0000
  C   C233      1.0  0.78979  0.17296  0.36030  1.0000
  C   C234      1.0  0.77267  0.18715  0.42483  1.0000
  C   C235      1.0  0.73913  0.18571  0.42849  1.0000
  C   C236      1.0  0.72231  0.17375  0.35783  1.0000
  N   N181      1.0  0.72310  0.19341  0.50376  1.0000
  H   H217      1.0  0.73382  0.19793  0.55880  1.0000
  H   H218      1.0  0.70110  0.18941  0.51268  1.0000
  N   N182      1.0  0.78832  0.20071  0.48814  1.0000
  H   H219      1.0  0.81064  0.19894  0.49957  1.0000
  H   H220      1.0  0.77810  0.21333  0.52293  1.0000
  C   C237      1.0  0.72205  0.83890  0.36148  1.0000
  C   C238      1.0  0.73919  0.82435  0.42484  1.0000
  C   C239      1.0  0.77274  0.82578  0.42859  1.0000
  C   C240      1.0  0.78956  0.83806  0.35867  1.0000
  N   N183      1.0  0.78876  0.81778  0.50345  1.0000
  H   H221      1.0  0.77801  0.81302  0.55818  1.0000
  H   H222      1.0  0.81073  0.82181  0.51272  1.0000
  N   N184      1.0  0.72358  0.81046  0.48721  1.0000
  H   H223      1.0  0.70127  0.81221  0.49898  1.0000
  H   H224      1.0  0.73382  0.79766  0.52100  1.0000
  C   C241      1.0  0.53988  0.67294  0.36160  1.0000
  C   C242      1.0  0.52272  0.68748  0.42496  1.0000
  C   C243      1.0  0.98917  0.68602  0.42865  1.0000
  C   C244      1.0  0.97237  0.67376  0.35868  1.0000
  N   N185      1.0  0.97314  0.69403  0.50349  1.0000
  H   H225      1.0  0.98388  0.69878  0.55824  1.0000
  H   H226      1.0  0.95117  0.68999  0.51272  1.0000
  N   N186      1.0  0.53832  0.70137  0.48735  1.0000
  H   H227      1.0  0.56064  0.69967  0.49901  1.0000
  H   H228      1.0  0.52807  0.71418  0.52110  1.0000
  C   C245      1.0  0.97212  0.33888  0.35987  1.0000
  C   C246      1.0  0.98922  0.32477  0.42468  1.0000
  C   C247      1.0  0.52276  0.32621  0.42833  1.0000
  C   C248      1.0  0.53960  0.33813  0.35764  1.0000
  N   N187      1.0  0.53878  0.31857  0.50368  1.0000
  H   H229      1.0  0.52816  0.31389  0.55872  1.0000
  H   H230      1.0  0.56083  0.32244  0.51267  1.0000
  N   N188      1.0  0.97355  0.31132  0.48824  1.0000
  H   H231      1.0  0.95122  0.31311  0.49958  1.0000
  H   H232      1.0  0.98374  0.29874  0.52331  1.0000
  C   C249      1.0  0.58888  0.14614  0.41395  1.0000
  C   C250      1.0  0.56273  0.12976  0.41238  1.0000
  N   N189      1.0  0.59363  0.16070  0.48816  1.0000
  H   H233      1.0  0.61348  0.16885  0.49879  1.0000
  H   H234      1.0  0.58099  0.15945  0.54219  1.0000
  N   N190      1.0  0.53933  0.13217  0.47555  1.0000
  H   H235      1.0  0.52429  0.11942  0.48840  1.0000
  H   H236      1.0  0.53543  0.14725  0.50710  1.0000
  C   C251      1.0  0.92317  0.86562  0.41395  1.0000
  C   C252      1.0  0.94938  0.88194  0.41222  1.0000
  N   N191      1.0  0.91851  0.85096  0.48798  1.0000
  H   H237      1.0  0.89857  0.84296  0.49872  1.0000
  H   H238      1.0  0.93121  0.85225  0.54182  1.0000
  N   N192      1.0  0.97291  0.87938  0.47490  1.0000
  H   H239      1.0  0.98793  0.89212  0.48807  1.0000
  H   H240      1.0  0.97680  0.86426  0.50620  1.0000
  C   C253      1.0  0.94988  0.10989  0.32648  1.0000
  C   C254      1.0  0.92551  0.10761  0.39283  1.0000
  C   C255      1.0  0.89983  0.12464  0.39410  1.0000
  C   C256      1.0  0.89947  0.14481  0.33287  1.0000
  N   N193      1.0  0.87681  0.12243  0.45839  1.0000
  H   H241      1.0  0.87244  0.10723  0.48850  1.0000
  H   H242      1.0  0.86209  0.13520  0.47251  1.0000
  N   N194      1.0  0.92927  0.09154  0.46299  1.0000
  H   H243      1.0  0.94764  0.08137  0.46923  1.0000
  H   H244      1.0  0.91668  0.09210  0.51715  1.0000
  C   C257      1.0  0.56219  0.90208  0.32703  1.0000
  C   C258      1.0  0.58620  0.90401  0.39457  1.0000
  C   C259      1.0  0.61174  0.88686  0.39609  1.0000
  C   C260      1.0  0.61239  0.86702  0.33339  1.0000
  N   N195      1.0  0.63435  0.88857  0.46178  1.0000
  H   H245      1.0  0.63853  0.90348  0.49398  1.0000
  H   H246      1.0  0.64884  0.87562  0.47570  1.0000
  N   N196      1.0  0.58217  0.91992  0.46510  1.0000
  H   H247      1.0  0.56398  0.93031  0.47070  1.0000
  H   H248      1.0  0.59450  0.91921  0.51973  1.0000
  C   C261      1.0  0.83870  0.64631  0.41354  1.0000
  C   C262      1.0  0.81249  0.62999  0.41185  1.0000
  N   N197      1.0  0.84338  0.66095  0.48758  1.0000
  H   H249      1.0  0.86326  0.66903  0.49843  1.0000
  H   H250      1.0  0.83062  0.65982  0.54140  1.0000
  N   N198      1.0  0.78900  0.63253  0.47469  1.0000
  H   H251      1.0  0.77396  0.61981  0.48779  1.0000
  H   H252      1.0  0.78509  0.64767  0.50587  1.0000
  C   C263      1.0  0.67299  0.36582  0.41432  1.0000
  C   C264      1.0  0.69914  0.38219  0.41269  1.0000
  N   N199      1.0  0.66822  0.35126  0.48856  1.0000
  H   H253      1.0  0.64830  0.34320  0.49906  1.0000
  H   H254      1.0  0.68079  0.35268  0.54263  1.0000
  N   N200      1.0  0.72258  0.37976  0.47574  1.0000
  H   H255      1.0  0.73761  0.39252  0.48863  1.0000
  H   H256      1.0  0.72643  0.36470  0.50749  1.0000
  C   C265      1.0  0.69963  0.60978  0.32753  1.0000
  C   C266      1.0  0.67603  0.60819  0.39638  1.0000
  C   C267      1.0  0.65051  0.62536  0.39797  1.0000
  C   C268      1.0  0.64952  0.64486  0.33388  1.0000
  N   N201      1.0  0.62828  0.62401  0.46482  1.0000
  H   H257      1.0  0.62432  0.60928  0.49836  1.0000
  H   H258      1.0  0.61369  0.63696  0.47788  1.0000
  N   N202      1.0  0.68042  0.59258  0.46767  1.0000
  H   H259      1.0  0.69859  0.58215  0.47275  1.0000
  H   H260      1.0  0.66844  0.59356  0.52288  1.0000
  C   C269      1.0  0.81199  0.40200  0.32618  1.0000
  C   C270      1.0  0.83661  0.40448  0.39167  1.0000
  C   C271      1.0  0.86230  0.38745  0.39286  1.0000
  C   C272      1.0  0.86245  0.36709  0.33251  1.0000
  N   N203      1.0  0.88555  0.38988  0.45633  1.0000
  H   H261      1.0  0.89002  0.40517  0.48571  1.0000
  H   H262      1.0  0.90023  0.37712  0.47097  1.0000
  N   N204      1.0  0.83305  0.42073  0.46133  1.0000
  H   H263      1.0  0.81470  0.43090  0.46795  1.0000
  H   H264      1.0  0.84586  0.42032  0.51512  1.0000
  C   C273      1.0  0.62428  0.28120  0.35437  1.0000
  C   C274      1.0  0.62735  0.26866  0.43841  1.0000
  C   C275      1.0  0.63455  0.24324  0.43838  1.0000
  C   C276      1.0  0.63767  0.23073  0.35431  1.0000
  N   N205      1.0  0.63929  0.23076  0.51741  1.0000
  H   H265      1.0  0.64076  0.23853  0.57555  1.0000
  H   H266      1.0  0.64364  0.21350  0.51883  1.0000
  N   N206      1.0  0.62255  0.28112  0.51746  1.0000
  H   H267      1.0  0.61826  0.29840  0.51896  1.0000
  H   H268      1.0  0.62110  0.27335  0.57560  1.0000
  C   C277      1.0  0.88770  0.73071  0.35369  1.0000
  C   C278      1.0  0.88460  0.74322  0.43777  1.0000
  C   C279      1.0  0.87742  0.76865  0.43781  1.0000
  C   C280      1.0  0.87429  0.78117  0.35375  1.0000
  N   N207      1.0  0.87273  0.78112  0.51687  1.0000
  H   H269      1.0  0.87132  0.77337  0.57503  1.0000
  H   H270      1.0  0.86843  0.79840  0.51834  1.0000
  N   N208      1.0  0.88932  0.73073  0.51680  1.0000
  H   H271      1.0  0.89358  0.71345  0.51825  1.0000
  H   H272      1.0  0.89069  0.73847  0.57500  1.0000
  C   C281      1.0  0.87827  0.24309  0.41974  1.0000
  C   C282      1.0  0.88361  0.26876  0.41978  1.0000
  N   N209      1.0  0.87815  0.23015  0.49885  1.0000
  H   H273      1.0  0.87542  0.21266  0.50033  1.0000
  H   H274      1.0  0.88523  0.23696  0.55530  1.0000
  N   N210      1.0  0.88376  0.28168  0.49895  1.0000
  H   H275      1.0  0.88648  0.29917  0.50049  1.0000
  H   H276      1.0  0.87670  0.27485  0.55539  1.0000
  C   C283      1.0  0.63355  0.76875  0.41814  1.0000
  C   C284      1.0  0.62838  0.74307  0.41808  1.0000
  N   N211      1.0  0.63342  0.78165  0.49732  1.0000
  H   H277      1.0  0.63598  0.79915  0.49893  1.0000
  H   H278      1.0  0.62616  0.77479  0.55354  1.0000
  N   N212      1.0  0.62853  0.73015  0.49723  1.0000
  H   H279      1.0  0.62603  0.71264  0.49860  1.0000
  H   H280      1.0  0.63586  0.73698  0.55340  1.0000
  C   C285      1.0  0.50707  0.01896  0.42184  1.0000
  C   C286      1.0  0.50482  0.99295  0.42196  1.0000
  N   N213      1.0  0.51071  0.03156  0.50097  1.0000
  H   H281      1.0  0.51246  0.04909  0.50285  1.0000
  H   H282      1.0  0.51591  0.02366  0.55728  1.0000
  N   N214      1.0  0.50121  0.98040  0.50123  1.0000
  H   H283      1.0  0.49933  0.96288  0.50310  1.0000
  H   H284      1.0  0.49583  0.98837  0.55727  1.0000
  C   C287      1.0  0.75704  0.51895  0.42206  1.0000
  C   C288      1.0  0.75479  0.49295  0.42184  1.0000
  N   N215      1.0  0.76062  0.53149  0.50138  1.0000
  H   H285      1.0  0.76253  0.54901  0.50331  1.0000
  H   H286      1.0  0.76597  0.52350  0.55742  1.0000
  N   N216      1.0  0.75112  0.48033  0.50092  1.0000
  H   H287      1.0  0.74939  0.46279  0.50275  1.0000
  H   H288      1.0  0.74588  0.48822  0.55723  1.0000
