data_image0
_chemical_formula_structural       C3OH2C3OH2C3HOHC3HOHC3HOHC3HOHC3HOHC3HOHC3OH2C3OH2C3HOHC3HOHC3OH2C3OH2C3HOHC3HOHC3HOHC3HOHC3OH2C3OH2C3HOHC3HOHC3OH2C3OH2C3HOHC3HOHC3HOHC3HOHC3OH2C3OH2CNCNCNCNCNCNCNCNCNCNCNCNCNCNCNCNCNCNCNCNCNCNCNCNCNCNCNCNCNCNCNCNCNCNCNCNCNCNCNCNCNCNCNCNCNCNCNCNCNCNCNCNCNCNCNCNCNCNCNCNC3HOHC3HOHC3OH2C3OH2C3OH2C3OH2C3OH2C3OH2C3HOHC3HOHC3OH2C3OH2C3HOHC3HOHC3OH2C3OH2C3OH2C3OH2C3HOHC3HOHC3OH2C3OH2C3HOHC3HOHC3OH2C3OH2C3OH2C3OH2C3HOHC3HOHC3OH2C3OH2C3HOHC3HOHC3HOHC3HOHC3HOHC3HOHC3OH2C3OH2C3HOHC3HOHC3OH2C3OH2C3HOHC3HOHC3HOHC3HOHC3OH2C3OH2C3HOHC3HOHC3OH2C3OH2C3HOHC3HOHC3HOHC3HOHC3OH2C3OH2CNCNCNCNCNCNCNCNCNCNCNCNCNCNCNCNCNCNCNCNCNCNCNCNCNCNCNCNCNCNCNCNCNCNCNCNCNCNCNCNCNCNCNCNCNCNCNCNCNCNCNCNCNCNCNCNCNCNCNCNC3HOHC3HOHC3OH2C3OH2C3OH2C3OH2C3OH2C3OH2C3HOHC3HOHC3OH2C3OH2C3HOHC3HOHC3OH2C3OH2C3OH2C3OH2C3HOHC3HOHC3OH2C3OH2C3HOHC3HOHC3OH2C3OH2C3OH2C3OH2C3HOHC3HOH
_chemical_formula_sum              "C480 O120 H240 N120"
_cell_length_a       84.3746
_cell_length_b       44.4442
_cell_length_c       14.8926
_cell_angle_alpha    90
_cell_angle_beta     90
_cell_angle_gamma    90

_space_group_name_H-M_alt    "P 1"
_space_group_IT_number       1

loop_
  _space_group_symop_operation_xyz
  'x, y, z'

loop_
  _atom_site_type_symbol
  _atom_site_label
  _atom_site_symmetry_multiplicity
  _atom_site_fract_x
  _atom_site_fract_y
  _atom_site_fract_z
  _atom_site_occupancy
  C   C1        1.0  0.24938  0.15421  0.28946  1.0000
  C   C2        1.0  0.26553  0.14614  0.29453  1.0000
  C   C3        1.0  0.27021  0.12034  0.34349  1.0000
  O   O1        1.0  0.27621  0.16359  0.25003  1.0000
  H   H1        1.0  0.24650  0.17295  0.25290  1.0000
  H   H2        1.0  0.27727  0.15485  0.18965  1.0000
  C   C4        1.0  0.75809  0.35091  0.29891  1.0000
  C   C5        1.0  0.74199  0.35936  0.30204  1.0000
  C   C6        1.0  0.73738  0.38602  0.34701  1.0000
  O   O2        1.0  0.73132  0.34142  0.25916  1.0000
  H   H3        1.0  0.76091  0.33161  0.26493  1.0000
  H   H4        1.0  0.73034  0.34939  0.19779  1.0000
  C   C7        1.0  0.74933  0.10310  0.29293  1.0000
  C   C8        1.0  0.76541  0.11159  0.29756  1.0000
  C   C9        1.0  0.76986  0.13794  0.34441  1.0000
  H   H5        1.0  0.74665  0.08384  0.25838  1.0000
  O   O3        1.0  0.77627  0.09385  0.25550  1.0000
  H   H6        1.0  0.77788  0.10265  0.19558  1.0000
  C   C10       1.0  0.25764  0.40347  0.29387  1.0000
  C   C11       1.0  0.24154  0.39498  0.29768  1.0000
  C   C12       1.0  0.23703  0.36853  0.34376  1.0000
  H   H7        1.0  0.26038  0.42278  0.25971  1.0000
  O   O4        1.0  0.23069  0.41270  0.25542  1.0000
  H   H8        1.0  0.22927  0.40412  0.19508  1.0000
  C   C13       1.0  0.30211  0.01921  0.26000  1.0000
  C   C14       1.0  0.30202  0.48763  0.25914  1.0000
  C   C15       1.0  0.30295  0.47191  0.34141  1.0000
  H   H9        1.0  0.30100  0.03066  0.20055  1.0000
  O   O5        1.0  0.30034  0.47318  0.17907  1.0000
  H   H10       1.0  0.31106  0.46699  0.16081  1.0000
  C   C16       1.0  0.70068  0.48668  0.25898  1.0000
  C   C17       1.0  0.70083  0.01828  0.25770  1.0000
  C   C18       1.0  0.70430  0.03406  0.33765  1.0000
  H   H11       1.0  0.69883  0.47520  0.20021  1.0000
  O   O6        1.0  0.69878  0.03274  0.17794  1.0000
  H   H12       1.0  0.68749  0.03807  0.17483  1.0000
  C   C19       1.0  0.80426  0.26800  0.26202  1.0000
  C   C20       1.0  0.80446  0.23642  0.26360  1.0000
  C   C21       1.0  0.80446  0.22140  0.34724  1.0000
  H   H13       1.0  0.80368  0.27892  0.20144  1.0000
  O   O7        1.0  0.80354  0.22129  0.18424  1.0000
  H   H14       1.0  0.81440  0.21480  0.17004  1.0000
  C   C22       1.0  0.20326  0.23723  0.25428  1.0000
  C   C23       1.0  0.20320  0.26881  0.25589  1.0000
  C   C24       1.0  0.20334  0.28383  0.33951  1.0000
  H   H15       1.0  0.20375  0.22630  0.19371  1.0000
  O   O8        1.0  0.20398  0.28399  0.17657  1.0000
  H   H16       1.0  0.19307  0.29016  0.16248  1.0000
  C   C25       1.0  0.34006  0.11618  0.25072  1.0000
  C   C26       1.0  0.35625  0.12384  0.25390  1.0000
  C   C27       1.0  0.36180  0.14480  0.31821  1.0000
  O   O9        1.0  0.36617  0.11138  0.19198  1.0000
  H   H17       1.0  0.33653  0.10028  0.20504  1.0000
  H   H18       1.0  0.36812  0.09056  0.21143  1.0000
  C   C28       1.0  0.66883  0.38322  0.24471  1.0000
  C   C29       1.0  0.65253  0.37637  0.24679  1.0000
  C   C30       1.0  0.64590  0.36237  0.32333  1.0000
  O   O10       1.0  0.64349  0.38301  0.17365  1.0000
  H   H19       1.0  0.67322  0.39454  0.19015  1.0000
  H   H20       1.0  0.63993  0.40390  0.18157  1.0000
  C   C31       1.0  0.65693  0.15846  0.30288  1.0000
  C   C32       1.0  0.67302  0.14953  0.30347  1.0000
  C   C33       1.0  0.67823  0.12707  0.36399  1.0000
  H   H21       1.0  0.65341  0.17387  0.25585  1.0000
  O   O11       1.0  0.68302  0.16159  0.24144  1.0000
  H   H22       1.0  0.68226  0.14875  0.18781  1.0000
  C   C34       1.0  0.35021  0.34857  0.30623  1.0000
  C   C35       1.0  0.33409  0.35728  0.30658  1.0000
  C   C36       1.0  0.32855  0.37852  0.37014  1.0000
  H   H23       1.0  0.35405  0.33387  0.25789  1.0000
  O   O12       1.0  0.32435  0.34625  0.24153  1.0000
  H   H24       1.0  0.32523  0.36010  0.19023  1.0000
  C   C37       1.0  0.83978  0.36901  0.25453  1.0000
  C   C38       1.0  0.85599  0.37652  0.25818  1.0000
  C   C39       1.0  0.86177  0.39515  0.32795  1.0000
  O   O13       1.0  0.86569  0.36636  0.19161  1.0000
  H   H25       1.0  0.83606  0.35471  0.20478  1.0000
  H   H26       1.0  0.86793  0.34513  0.20518  1.0000
  C   C40       1.0  0.17233  0.11290  0.26889  1.0000
  C   C41       1.0  0.15605  0.10570  0.26294  1.0000
  C   C42       1.0  0.14574  0.11189  0.33581  1.0000
  O   O14       1.0  0.15046  0.09445  0.18401  1.0000
  H   H27       1.0  0.17928  0.11043  0.21297  1.0000
  H   H28       1.0  0.14636  0.11173  0.14983  1.0000
  C   C43       1.0  0.15683  0.40740  0.29189  1.0000
  C   C44       1.0  0.17291  0.39841  0.29421  1.0000
  C   C45       1.0  0.17819  0.37787  0.36041  1.0000
  H   H29       1.0  0.15324  0.42148  0.24141  1.0000
  O   O15       1.0  0.18288  0.40849  0.22892  1.0000
  H   H30       1.0  0.18204  0.39410  0.17894  1.0000
  C   C46       1.0  0.85166  0.10727  0.27543  1.0000
  C   C47       1.0  0.83544  0.11521  0.27632  1.0000
  C   C48       1.0  0.82832  0.12592  0.35628  1.0000
  H   H31       1.0  0.85664  0.09993  0.21663  1.0000
  O   O16       1.0  0.82704  0.11351  0.19842  1.0000
  H   H32       1.0  0.82879  0.13266  0.16677  1.0000
  C   C49       1.0  0.09815  0.17547  0.34659  1.0000
  C   C50       1.0  0.08889  0.20178  0.34516  1.0000
  C   C51       1.0  0.07204  0.20066  0.34815  1.0000
  H   H33       1.0  0.11016  0.17859  0.34379  1.0000
  O   O17       1.0  0.09729  0.22780  0.33783  1.0000
  H   H34       1.0  0.09791  0.23238  0.27326  1.0000
  C   C52       1.0  0.91013  0.33428  0.29461  1.0000
  C   C53       1.0  0.91941  0.30799  0.29284  1.0000
  C   C54       1.0  0.93578  0.30851  0.31564  1.0000
  H   H35       1.0  0.89843  0.33174  0.27822  1.0000
  O   O18       1.0  0.91169  0.28267  0.26586  1.0000
  H   H36       1.0  0.91423  0.27997  0.20190  1.0000
  C   C55       1.0  0.94156  0.17077  0.33610  1.0000
  C   C56       1.0  0.93208  0.14424  0.33703  1.0000
  C   C57       1.0  0.91524  0.14571  0.34075  1.0000
  O   O19       1.0  0.93965  0.11724  0.33520  1.0000
  H   H37       1.0  0.95360  0.16833  0.33243  1.0000
  H   H38       1.0  0.94063  0.11172  0.27148  1.0000
  C   C58       1.0  0.06491  0.33812  0.34366  1.0000
  C   C59       1.0  0.07438  0.36466  0.34097  1.0000
  C   C60       1.0  0.09094  0.36379  0.35933  1.0000
  O   O20       1.0  0.06719  0.39096  0.31811  1.0000
  H   H39       1.0  0.05320  0.33989  0.32663  1.0000
  H   H40       1.0  0.06741  0.39197  0.25215  1.0000
  C   C61       1.0  0.59822  0.42570  0.33429  1.0000
  C   C62       1.0  0.58888  0.45190  0.33478  1.0000
  C   C63       1.0  0.57208  0.45056  0.34190  1.0000
  H   H41       1.0  0.61019  0.42895  0.32880  1.0000
  O   O21       1.0  0.59712  0.47804  0.32522  1.0000
  H   H42       1.0  0.59713  0.48269  0.26060  1.0000
  C   C64       1.0  0.41021  0.08373  0.29209  1.0000
  C   C65       1.0  0.41947  0.05742  0.29192  1.0000
  C   C66       1.0  0.43582  0.05808  0.31488  1.0000
  H   H43       1.0  0.39852  0.08110  0.27565  1.0000
  O   O22       1.0  0.41174  0.03193  0.26633  1.0000
  H   H44       1.0  0.41425  0.02889  0.20246  1.0000
  C   C67       1.0  0.44165  0.42047  0.33885  1.0000
  C   C68       1.0  0.43217  0.39396  0.34067  1.0000
  C   C69       1.0  0.41535  0.39545  0.34668  1.0000
  O   O23       1.0  0.43973  0.36694  0.33783  1.0000
  H   H45       1.0  0.45368  0.41804  0.33366  1.0000
  H   H46       1.0  0.44058  0.36157  0.27394  1.0000
  C   C70       1.0  0.56490  0.08785  0.34608  1.0000
  C   C71       1.0  0.57438  0.11437  0.34485  1.0000
  C   C72       1.0  0.59093  0.11333  0.36335  1.0000
  O   O24       1.0  0.56720  0.14083  0.32351  1.0000
  H   H47       1.0  0.55318  0.08975  0.32918  1.0000
  H   H48       1.0  0.56741  0.14224  0.25761  1.0000
  C   C73       1.0  0.11904  0.02009  0.26203  1.0000
  C   C74       1.0  0.11953  0.48857  0.26239  1.0000
  C   C75       1.0  0.10702  0.47136  0.30078  1.0000
  H   H49       1.0  0.12847  0.03080  0.23281  1.0000
  O   O25       1.0  0.13210  0.47573  0.21884  1.0000
  H   H50       1.0  0.14158  0.47924  0.25601  1.0000
  C   C76       1.0  0.91383  0.48729  0.34600  1.0000
  C   C77       1.0  0.91392  0.01940  0.34389  1.0000
  C   C78       1.0  0.90048  0.03623  0.37239  1.0000
  H   H51       1.0  0.92311  0.47600  0.31723  1.0000
  O   O26       1.0  0.92651  0.03361  0.30579  1.0000
  H   H52       1.0  0.92414  0.03524  0.24130  1.0000
  C   C79       1.0  0.61944  0.26954  0.27064  1.0000
  C   C80       1.0  0.61982  0.23805  0.27106  1.0000
  C   C81       1.0  0.60718  0.22102  0.30870  1.0000
  H   H53       1.0  0.62894  0.28006  0.24148  1.0000
  O   O27       1.0  0.63238  0.22507  0.22777  1.0000
  H   H54       1.0  0.64188  0.22880  0.26456  1.0000
  C   C82       1.0  0.41385  0.23705  0.34237  1.0000
  C   C83       1.0  0.41390  0.26917  0.34219  1.0000
  C   C84       1.0  0.40045  0.28578  0.37150  1.0000
  H   H55       1.0  0.42317  0.22597  0.31336  1.0000
  O   O28       1.0  0.42656  0.28367  0.30579  1.0000
  H   H56       1.0  0.42429  0.28584  0.24133  1.0000
  C   C85       1.0  0.99507  0.27916  0.31227  1.0000
  C   C86       1.0  0.01183  0.27980  0.31230  1.0000
  C   C87       1.0  0.02084  0.25439  0.34002  1.0000
  O   O29       1.0  0.01883  0.30575  0.28416  1.0000
  H   H57       1.0  0.98924  0.29804  0.29084  1.0000
  H   H58       1.0  0.02136  0.30281  0.22029  1.0000
  C   C88       1.0  0.49508  0.02887  0.31215  1.0000
  C   C89       1.0  0.51183  0.02953  0.31191  1.0000
  C   C90       1.0  0.52084  0.00413  0.33967  1.0000
  O   O30       1.0  0.51882  0.05544  0.28338  1.0000
  H   H59       1.0  0.48923  0.04773  0.29066  1.0000
  H   H60       1.0  0.52136  0.05241  0.21955  1.0000
  C   C91       1.0  0.31422  0.11323  0.32330  1.0000
  N   N1        1.0  0.29959  0.12646  0.33060  1.0000
  C   C92       1.0  0.28615  0.10948  0.34261  1.0000
  N   N2        1.0  0.28787  0.07918  0.34671  1.0000
  C   C93       1.0  0.30216  0.06592  0.34135  1.0000
  N   N3        1.0  0.31517  0.08286  0.32901  1.0000
  C   C94       1.0  0.69343  0.39221  0.32491  1.0000
  N   N4        1.0  0.70809  0.37938  0.33430  1.0000
  C   C95       1.0  0.72142  0.39678  0.34449  1.0000
  N   N5        1.0  0.71947  0.42705  0.34589  1.0000
  C   C96       1.0  0.70511  0.43995  0.33752  1.0000
  N   N6        1.0  0.69219  0.42257  0.32667  1.0000
  C   C97       1.0  0.69307  0.11239  0.35354  1.0000
  N   N7        1.0  0.70766  0.12579  0.34650  1.0000
  C   C98       1.0  0.72120  0.10898  0.33570  1.0000
  N   N8        1.0  0.71961  0.07863  0.33265  1.0000
  C   C99       1.0  0.70536  0.06518  0.33750  1.0000
  N   N9        1.0  0.69228  0.08199  0.34846  1.0000
  C   C100      1.0  0.31378  0.39341  0.35968  1.0000
  N   N10       1.0  0.29919  0.38025  0.35006  1.0000
  C   C101      1.0  0.28576  0.39725  0.33750  1.0000
  N   N11       1.0  0.28749  0.42757  0.33456  1.0000
  C   C102      1.0  0.30175  0.44081  0.34281  1.0000
  N   N12       1.0  0.31471  0.42381  0.35579  1.0000
  C   C103      1.0  0.81433  0.36331  0.32895  1.0000
  N   N13       1.0  0.79952  0.37594  0.33256  1.0000
  C   C104      1.0  0.78622  0.35820  0.33754  1.0000
  N   N14       1.0  0.78823  0.32797  0.34149  1.0000
  C   C105      1.0  0.80273  0.31538  0.33985  1.0000
  N   N15       1.0  0.81563  0.33296  0.33295  1.0000
  C   C106      1.0  0.19319  0.14177  0.34169  1.0000
  N   N16       1.0  0.20802  0.12935  0.33683  1.0000
  C   C107      1.0  0.22124  0.14719  0.33010  1.0000
  N   N17       1.0  0.21912  0.17743  0.32885  1.0000
  C   C108      1.0  0.20458  0.18983  0.33241  1.0000
  N   N18       1.0  0.19172  0.17210  0.33966  1.0000
  C   C109      1.0  0.19293  0.36268  0.35317  1.0000
  N   N19       1.0  0.20770  0.37549  0.34944  1.0000
  C   C110      1.0  0.22108  0.35794  0.34481  1.0000
  N   N20       1.0  0.21920  0.32768  0.34112  1.0000
  C   C111      1.0  0.20475  0.31488  0.34286  1.0000
  N   N21       1.0  0.19178  0.33229  0.34944  1.0000
  C   C112      1.0  0.81393  0.14207  0.35306  1.0000
  N   N22       1.0  0.79903  0.12993  0.34923  1.0000
  C   C113      1.0  0.78588  0.14809  0.34758  1.0000
  N   N23       1.0  0.78816  0.17828  0.34746  1.0000
  C   C114      1.0  0.80278  0.19038  0.35035  1.0000
  N   N24       1.0  0.81559  0.17237  0.35310  1.0000
  C   C115      1.0  0.10209  0.12058  0.34102  1.0000
  N   N25       1.0  0.09788  0.09083  0.32878  1.0000
  C   C116      1.0  0.10892  0.06847  0.31418  1.0000
  N   N26       1.0  0.12438  0.07723  0.31614  1.0000
  C   C117      1.0  0.12935  0.10544  0.33139  1.0000
  N   N27       1.0  0.11800  0.12639  0.34340  1.0000
  C   C118      1.0  0.90562  0.38804  0.32612  1.0000
  N   N28       1.0  0.90953  0.41757  0.34437  1.0000
  C   C119      1.0  0.89825  0.43933  0.36039  1.0000
  N   N29       1.0  0.88290  0.43027  0.35441  1.0000
  C   C120      1.0  0.87814  0.40223  0.33443  1.0000
  N   N30       1.0  0.88978  0.38188  0.32096  1.0000
  C   C121      1.0  0.90477  0.12033  0.34392  1.0000
  N   N31       1.0  0.90902  0.09040  0.35054  1.0000
  C   C122      1.0  0.89800  0.06778  0.36077  1.0000
  N   N32       1.0  0.88251  0.07637  0.35897  1.0000
  C   C123      1.0  0.87757  0.10484  0.34912  1.0000
  N   N33       1.0  0.88887  0.12619  0.34392  1.0000
  C   C124      1.0  0.10161  0.38871  0.35065  1.0000
  N   N34       1.0  0.09780  0.41824  0.33179  1.0000
  C   C125      1.0  0.10916  0.43993  0.31649  1.0000
  N   N35       1.0  0.12449  0.43077  0.32377  1.0000
  C   C126      1.0  0.12916  0.40270  0.34435  1.0000
  N   N36       1.0  0.11742  0.38248  0.35696  1.0000
  C   C127      1.0  0.60231  0.37081  0.33362  1.0000
  N   N37       1.0  0.59815  0.34079  0.32853  1.0000
  C   C128      1.0  0.60924  0.31823  0.31890  1.0000
  N   N38       1.0  0.62469  0.32710  0.31973  1.0000
  C   C129      1.0  0.62957  0.35567  0.32713  1.0000
  N   N39       1.0  0.61819  0.37687  0.33196  1.0000
  C   C130      1.0  0.40570  0.13767  0.32066  1.0000
  N   N40       1.0  0.40960  0.16718  0.33914  1.0000
  C   C131      1.0  0.39828  0.18897  0.35373  1.0000
  N   N41       1.0  0.38294  0.17998  0.34574  1.0000
  C   C132      1.0  0.37819  0.15197  0.32522  1.0000
  N   N42       1.0  0.38988  0.13158  0.31376  1.0000
  C   C133      1.0  0.40490  0.37007  0.35051  1.0000
  N   N43       1.0  0.40908  0.34004  0.35349  1.0000
  C   C134      1.0  0.39802  0.31745  0.36295  1.0000
  N   N44       1.0  0.38256  0.32627  0.36431  1.0000
  C   C135      1.0  0.37762  0.35490  0.35950  1.0000
  N   N45       1.0  0.38904  0.37604  0.35440  1.0000
  C   C136      1.0  0.60161  0.13828  0.35637  1.0000
  N   N46       1.0  0.59782  0.16788  0.33829  1.0000
  C   C137      1.0  0.60921  0.18959  0.32446  1.0000
  N   N47       1.0  0.62452  0.18037  0.33258  1.0000
  C   C138      1.0  0.62918  0.15225  0.35252  1.0000
  N   N48       1.0  0.61740  0.13201  0.36334  1.0000
  C   C139      1.0  0.06234  0.28214  0.35704  1.0000
  N   N49       1.0  0.04625  0.28091  0.34926  1.0000
  C   C140      1.0  0.03791  0.25451  0.34402  1.0000
  N   N50       1.0  0.04649  0.22827  0.34496  1.0000
  C   C141      1.0  0.06266  0.22749  0.34984  1.0000
  N   N51       1.0  0.06973  0.25493  0.35650  1.0000
  C   C142      1.0  0.94434  0.22689  0.33419  1.0000
  N   N52       1.0  0.96051  0.22753  0.33749  1.0000
  C   C143      1.0  0.96921  0.25357  0.33544  1.0000
  N   N53       1.0  0.96093  0.28005  0.32882  1.0000
  C   C144      1.0  0.94481  0.28140  0.32262  1.0000
  N   N54       1.0  0.93733  0.25432  0.32610  1.0000
  C   C145      1.0  0.56231  0.03183  0.35624  1.0000
  N   N55       1.0  0.54621  0.03064  0.34930  1.0000
  C   C146      1.0  0.53790  0.00425  0.34311  1.0000
  N   N56       1.0  0.54647  0.47801  0.34218  1.0000
  C   C147      1.0  0.56264  0.47728  0.34581  1.0000
  N   N57       1.0  0.56971  0.00467  0.35357  1.0000
  C   C148      1.0  0.44442  0.47658  0.33629  1.0000
  N   N58       1.0  0.46058  0.47723  0.33904  1.0000
  C   C149      1.0  0.46926  0.50327  0.33599  1.0000
  N   N59       1.0  0.46098  0.02972  0.32874  1.0000
  C   C150      1.0  0.44486  0.03102  0.32288  1.0000
  N   N60       1.0  0.43739  0.50395  0.32751  1.0000
  C   C151      1.0  0.25809  0.10330  0.38605  1.0000
  C   C152      1.0  0.24195  0.11129  0.38069  1.0000
  C   C153      1.0  0.23726  0.13694  0.33111  1.0000
  H   H61       1.0  0.26093  0.08455  0.42265  1.0000
  O   O31       1.0  0.23126  0.09382  0.42519  1.0000
  H   H62       1.0  0.22994  0.10293  0.48491  1.0000
  C   C154      1.0  0.74955  0.40363  0.38701  1.0000
  C   C155      1.0  0.76566  0.39527  0.38343  1.0000
  C   C156      1.0  0.77023  0.36862  0.33848  1.0000
  H   H63       1.0  0.74676  0.42308  0.42033  1.0000
  O   O32       1.0  0.77647  0.41330  0.42482  1.0000
  H   H64       1.0  0.77795  0.40500  0.48548  1.0000
  C   C157      1.0  0.75761  0.15540  0.38401  1.0000
  C   C158      1.0  0.74154  0.14678  0.37991  1.0000
  C   C159      1.0  0.73707  0.12023  0.33391  1.0000
  O   O33       1.0  0.73072  0.16436  0.42298  1.0000
  H   H65       1.0  0.76035  0.17453  0.41905  1.0000
  H   H66       1.0  0.72976  0.15621  0.48415  1.0000
  C   C160      1.0  0.24921  0.35112  0.38418  1.0000
  C   C161      1.0  0.26529  0.35971  0.38089  1.0000
  C   C162      1.0  0.26985  0.38621  0.33491  1.0000
  O   O34       1.0  0.27600  0.34207  0.42455  1.0000
  H   H67       1.0  0.24643  0.33194  0.41888  1.0000
  H   H68       1.0  0.27689  0.35024  0.48574  1.0000
  C   C163      1.0  0.30432  0.48754  0.42344  1.0000
  C   C164      1.0  0.30449  0.01912  0.42427  1.0000
  C   C165      1.0  0.30324  0.03483  0.34212  1.0000
  O   O35       1.0  0.30489  0.03363  0.50477  1.0000
  H   H69       1.0  0.30471  0.47609  0.48319  1.0000
  H   H70       1.0  0.31600  0.03938  0.51464  1.0000
  C   C166      1.0  0.70722  0.01849  0.41842  1.0000
  C   C167      1.0  0.70694  0.48693  0.41988  1.0000
  C   C168      1.0  0.70383  0.47108  0.33948  1.0000
  O   O36       1.0  0.71023  0.47259  0.49853  1.0000
  H   H71       1.0  0.70978  0.02997  0.47636  1.0000
  H   H72       1.0  0.69997  0.46627  0.52354  1.0000
  C   C169      1.0  0.80462  0.23774  0.42833  1.0000
  C   C170      1.0  0.80464  0.26932  0.42673  1.0000
  C   C171      1.0  0.80426  0.28434  0.34312  1.0000
  O   O37       1.0  0.80395  0.28449  0.50608  1.0000
  H   H73       1.0  0.80423  0.22681  0.48893  1.0000
  H   H74       1.0  0.81486  0.29087  0.51942  1.0000
  C   C172      1.0  0.20309  0.26749  0.42061  1.0000
  C   C173      1.0  0.20283  0.23591  0.41899  1.0000
  C   C174      1.0  0.20311  0.22089  0.33536  1.0000
  O   O38       1.0  0.20357  0.22073  0.49832  1.0000
  H   H75       1.0  0.20351  0.27840  0.48123  1.0000
  H   H76       1.0  0.19258  0.21547  0.51373  1.0000
  C   C175      1.0  0.35058  0.15803  0.37707  1.0000
  C   C176      1.0  0.33445  0.14944  0.37613  1.0000
  C   C177      1.0  0.32899  0.12807  0.31284  1.0000
  H   H77       1.0  0.35428  0.17265  0.42588  1.0000
  O   O39       1.0  0.32462  0.16070  0.44039  1.0000
  H   H78       1.0  0.32548  0.14713  0.49235  1.0000
  C   C178      1.0  0.65593  0.35485  0.39596  1.0000
  C   C179      1.0  0.67215  0.36272  0.39511  1.0000
  C   C180      1.0  0.67883  0.37678  0.31861  1.0000
  H   H79       1.0  0.65126  0.34516  0.45253  1.0000
  O   O40       1.0  0.68092  0.35793  0.47056  1.0000
  H   H80       1.0  0.67951  0.37586  0.50851  1.0000
  C   C181      1.0  0.66701  0.11467  0.42429  1.0000
  C   C182      1.0  0.65087  0.12275  0.42147  1.0000
  C   C183      1.0  0.64553  0.14469  0.35953  1.0000
  O   O41       1.0  0.64082  0.10973  0.48165  1.0000
  H   H81       1.0  0.67038  0.09817  0.46844  1.0000
  H   H82       1.0  0.63895  0.08905  0.46059  1.0000
  C   C184      1.0  0.33955  0.39029  0.43299  1.0000
  C   C185      1.0  0.35574  0.38273  0.42999  1.0000
  C   C186      1.0  0.36129  0.36193  0.36544  1.0000
  O   O42       1.0  0.36569  0.39505  0.49202  1.0000
  H   H83       1.0  0.33598  0.40606  0.47896  1.0000
  H   H84       1.0  0.36818  0.41545  0.47071  1.0000
  C   C187      1.0  0.85082  0.40624  0.39210  1.0000
  C   C188      1.0  0.83469  0.39759  0.39058  1.0000
  C   C189      1.0  0.82896  0.37873  0.32124  1.0000
  H   H85       1.0  0.85474  0.41915  0.44452  1.0000
  O   O43       1.0  0.82510  0.40633  0.45934  1.0000
  H   H86       1.0  0.82619  0.39093  0.50643  1.0000
  C   C190      1.0  0.15215  0.12436  0.41502  1.0000
  C   C191      1.0  0.16837  0.13172  0.42075  1.0000
  C   C192      1.0  0.17868  0.12600  0.34748  1.0000
  H   H87       1.0  0.14496  0.12875  0.46890  1.0000
  O   O44       1.0  0.17399  0.14440  0.49783  1.0000
  H   H88       1.0  0.17021  0.16533  0.49873  1.0000
  C   C193      1.0  0.16701  0.36717  0.42378  1.0000
  C   C194      1.0  0.15088  0.37512  0.41922  1.0000
  C   C195      1.0  0.14550  0.39527  0.35217  1.0000
  O   O45       1.0  0.14085  0.36385  0.48262  1.0000
  H   H89       1.0  0.17042  0.35191  0.47166  1.0000
  H   H90       1.0  0.13883  0.34276  0.46621  1.0000
  C   C196      1.0  0.83790  0.12921  0.43370  1.0000
  C   C197      1.0  0.85419  0.12225  0.43212  1.0000
  C   C198      1.0  0.86124  0.11149  0.35222  1.0000
  O   O46       1.0  0.86283  0.12607  0.50850  1.0000
  H   H91       1.0  0.83323  0.13842  0.49101  1.0000
  H   H92       1.0  0.86682  0.14685  0.50686  1.0000
  C   C199      1.0  0.06536  0.17127  0.34815  1.0000
  C   C200      1.0  0.07479  0.14466  0.34727  1.0000
  C   C201      1.0  0.09164  0.14597  0.34646  1.0000
  O   O47       1.0  0.06714  0.11772  0.34580  1.0000
  H   H93       1.0  0.05329  0.16892  0.34913  1.0000
  H   H94       1.0  0.06603  0.11148  0.40884  1.0000
  C   C202      1.0  0.94231  0.33747  0.33208  1.0000
  C   C203      1.0  0.93286  0.36403  0.33414  1.0000
  C   C204      1.0  0.91625  0.36306  0.31753  1.0000
  O   O48       1.0  0.94014  0.39047  0.35449  1.0000
  H   H95       1.0  0.95408  0.33933  0.34778  1.0000
  H   H96       1.0  0.94021  0.39190  0.42040  1.0000
  C   C205      1.0  0.90879  0.17523  0.34410  1.0000
  C   C206      1.0  0.91811  0.20146  0.34462  1.0000
  C   C207      1.0  0.93492  0.20017  0.33805  1.0000
  H   H97       1.0  0.89681  0.17841  0.34924  1.0000
  O   O49       1.0  0.90986  0.22757  0.35451  1.0000
  H   H98       1.0  0.90985  0.23213  0.41918  1.0000
  C   C208      1.0  0.09696  0.33515  0.38458  1.0000
  C   C209      1.0  0.08766  0.30891  0.38731  1.0000
  C   C210      1.0  0.07137  0.30928  0.36281  1.0000
  H   H99       1.0  0.10860  0.33272  0.40248  1.0000
  O   O50       1.0  0.09524  0.28384  0.41728  1.0000
  H   H100      1.0  0.09245  0.28173  0.48111  1.0000
  C   C211      1.0  0.56547  0.42112  0.34378  1.0000
  C   C212      1.0  0.57498  0.39462  0.34214  1.0000
  C   C213      1.0  0.59181  0.39614  0.33744  1.0000
  O   O51       1.0  0.56743  0.36758  0.34392  1.0000
  H   H101      1.0  0.55343  0.41866  0.34787  1.0000
  H   H102      1.0  0.56650  0.36202  0.40761  1.0000
  C   C214      1.0  0.44236  0.08709  0.33024  1.0000
  C   C215      1.0  0.43291  0.11366  0.33104  1.0000
  C   C216      1.0  0.41633  0.11263  0.31379  1.0000
  O   O52       1.0  0.44019  0.14019  0.35036  1.0000
  H   H103      1.0  0.45412  0.08902  0.34608  1.0000
  H   H104      1.0  0.44024  0.14192  0.41621  1.0000
  C   C217      1.0  0.40893  0.42498  0.35101  1.0000
  C   C218      1.0  0.41824  0.45121  0.34999  1.0000
  C   C219      1.0  0.43502  0.44987  0.34143  1.0000
  H   H105      1.0  0.39697  0.42819  0.35741  1.0000
  O   O53       1.0  0.41004  0.47736  0.36048  1.0000
  H   H106      1.0  0.41029  0.48205  0.42504  1.0000
  C   C220      1.0  0.59694  0.08452  0.38682  1.0000
  C   C221      1.0  0.58764  0.05827  0.38773  1.0000
  C   C222      1.0  0.57135  0.05889  0.36344  1.0000
  H   H107      1.0  0.60859  0.08192  0.40448  1.0000
  O   O54       1.0  0.59524  0.03293  0.41567  1.0000
  H   H108      1.0  0.59252  0.03033  0.47943  1.0000
  C   C223      1.0  0.09341  0.48775  0.32838  1.0000
  C   C224      1.0  0.09318  0.01987  0.32986  1.0000
  C   C225      1.0  0.10658  0.03689  0.30169  1.0000
  O   O55       1.0  0.08041  0.03394  0.36655  1.0000
  H   H109      1.0  0.08410  0.47641  0.35655  1.0000
  H   H110      1.0  0.08252  0.03545  0.43136  1.0000
  C   C226      1.0  0.88823  0.01938  0.41382  1.0000
  C   C227      1.0  0.88795  0.48788  0.41515  1.0000
  C   C228      1.0  0.90039  0.47077  0.37562  1.0000
  O   O56       1.0  0.87572  0.47493  0.46146  1.0000
  H   H111      1.0  0.87886  0.03004  0.44393  1.0000
  H   H112      1.0  0.86599  0.47817  0.42619  1.0000
  C   C229      1.0  0.59354  0.23759  0.33503  1.0000
  C   C230      1.0  0.59339  0.26972  0.33595  1.0000
  C   C231      1.0  0.60693  0.28655  0.30901  1.0000
  O   O57       1.0  0.58051  0.28401  0.37047  1.0000
  H   H113      1.0  0.58410  0.22636  0.36228  1.0000
  H   H114      1.0  0.58241  0.28595  0.43538  1.0000
  C   C232      1.0  0.38817  0.26859  0.41145  1.0000
  C   C233      1.0  0.38789  0.23710  0.41052  1.0000
  C   C234      1.0  0.40039  0.22032  0.37044  1.0000
  O   O58       1.0  0.37564  0.22379  0.45575  1.0000
  H   H115      1.0  0.37878  0.27895  0.44230  1.0000
  H   H116      1.0  0.36589  0.22765  0.42119  1.0000
  C   C235      1.0  0.01210  0.22852  0.36566  1.0000
  C   C236      1.0  0.99533  0.22791  0.36577  1.0000
  C   C237      1.0  0.98631  0.25335  0.33830  1.0000
  H   H117      1.0  0.01798  0.20969  0.38713  1.0000
  O   O59       1.0  0.98833  0.20195  0.39372  1.0000
  H   H118      1.0  0.98612  0.20458  0.45810  1.0000
  C   C238      1.0  0.51215  0.97827  0.36567  1.0000
  C   C239      1.0  0.49538  0.97765  0.36614  1.0000
  C   C240      1.0  0.48635  0.00307  0.33855  1.0000
  H   H119      1.0  0.51804  0.95947  0.38719  1.0000
  O   O60       1.0  0.48840  0.95171  0.39445  1.0000
  H   H120      1.0  0.48624  0.95439  0.45887  1.0000
  C   C241      1.0  0.24938  0.65421  0.28946  1.0000
  C   C242      1.0  0.26553  0.64614  0.29453  1.0000
  C   C243      1.0  0.27021  0.62034  0.34349  1.0000
  O   O61       1.0  0.27621  0.66359  0.25003  1.0000
  H   H121      1.0  0.24650  0.67295  0.25290  1.0000
  H   H122      1.0  0.27727  0.65485  0.18965  1.0000
  C   C244      1.0  0.75809  0.85091  0.29891  1.0000
  C   C245      1.0  0.74199  0.85936  0.30204  1.0000
  C   C246      1.0  0.73738  0.88602  0.34701  1.0000
  O   O62       1.0  0.73132  0.84142  0.25916  1.0000
  H   H123      1.0  0.76091  0.83161  0.26493  1.0000
  H   H124      1.0  0.73034  0.84939  0.19779  1.0000
  C   C247      1.0  0.74933  0.60310  0.29293  1.0000
  C   C248      1.0  0.76541  0.61159  0.29756  1.0000
  C   C249      1.0  0.76986  0.63794  0.34441  1.0000
  H   H125      1.0  0.74665  0.58384  0.25838  1.0000
  O   O63       1.0  0.77627  0.59385  0.25550  1.0000
  H   H126      1.0  0.77788  0.60265  0.19558  1.0000
  C   C250      1.0  0.25764  0.90347  0.29387  1.0000
  C   C251      1.0  0.24154  0.89498  0.29768  1.0000
  C   C252      1.0  0.23703  0.86853  0.34376  1.0000
  H   H127      1.0  0.26038  0.92278  0.25971  1.0000
  O   O64       1.0  0.23069  0.91270  0.25542  1.0000
  H   H128      1.0  0.22927  0.90412  0.19508  1.0000
  C   C253      1.0  0.30211  0.51921  0.26000  1.0000
  C   C254      1.0  0.30202  0.98763  0.25914  1.0000
  C   C255      1.0  0.30295  0.97191  0.34141  1.0000
  H   H129      1.0  0.30100  0.53066  0.20055  1.0000
  O   O65       1.0  0.30034  0.97318  0.17907  1.0000
  H   H130      1.0  0.31106  0.96699  0.16081  1.0000
  C   C256      1.0  0.70068  0.98668  0.25898  1.0000
  C   C257      1.0  0.70083  0.51828  0.25770  1.0000
  C   C258      1.0  0.70430  0.53406  0.33765  1.0000
  H   H131      1.0  0.69883  0.97520  0.20021  1.0000
  O   O66       1.0  0.69878  0.53274  0.17794  1.0000
  H   H132      1.0  0.68749  0.53807  0.17483  1.0000
  C   C259      1.0  0.80426  0.76800  0.26202  1.0000
  C   C260      1.0  0.80446  0.73642  0.26360  1.0000
  C   C261      1.0  0.80446  0.72140  0.34724  1.0000
  H   H133      1.0  0.80368  0.77892  0.20144  1.0000
  O   O67       1.0  0.80354  0.72129  0.18424  1.0000
  H   H134      1.0  0.81440  0.71480  0.17004  1.0000
  C   C262      1.0  0.20326  0.73723  0.25428  1.0000
  C   C263      1.0  0.20320  0.76881  0.25589  1.0000
  C   C264      1.0  0.20334  0.78383  0.33951  1.0000
  H   H135      1.0  0.20375  0.72630  0.19371  1.0000
  O   O68       1.0  0.20398  0.78399  0.17657  1.0000
  H   H136      1.0  0.19307  0.79016  0.16248  1.0000
  C   C265      1.0  0.34006  0.61618  0.25072  1.0000
  C   C266      1.0  0.35625  0.62384  0.25390  1.0000
  C   C267      1.0  0.36180  0.64480  0.31821  1.0000
  O   O69       1.0  0.36617  0.61138  0.19198  1.0000
  H   H137      1.0  0.33653  0.60029  0.20504  1.0000
  H   H138      1.0  0.36812  0.59056  0.21143  1.0000
  C   C268      1.0  0.66883  0.88322  0.24471  1.0000
  C   C269      1.0  0.65253  0.87637  0.24679  1.0000
  C   C270      1.0  0.64590  0.86237  0.32333  1.0000
  O   O70       1.0  0.64349  0.88301  0.17365  1.0000
  H   H139      1.0  0.67322  0.89453  0.19015  1.0000
  H   H140      1.0  0.63993  0.90390  0.18157  1.0000
  C   C271      1.0  0.65693  0.65846  0.30288  1.0000
  C   C272      1.0  0.67302  0.64953  0.30347  1.0000
  C   C273      1.0  0.67823  0.62707  0.36399  1.0000
  H   H141      1.0  0.65341  0.67387  0.25585  1.0000
  O   O71       1.0  0.68302  0.66159  0.24144  1.0000
  H   H142      1.0  0.68226  0.64875  0.18781  1.0000
  C   C274      1.0  0.35021  0.84857  0.30623  1.0000
  C   C275      1.0  0.33409  0.85728  0.30658  1.0000
  C   C276      1.0  0.32855  0.87852  0.37014  1.0000
  H   H143      1.0  0.35405  0.83388  0.25789  1.0000
  O   O72       1.0  0.32435  0.84625  0.24153  1.0000
  H   H144      1.0  0.32523  0.86010  0.19023  1.0000
  C   C277      1.0  0.83978  0.86901  0.25453  1.0000
  C   C278      1.0  0.85599  0.87652  0.25818  1.0000
  C   C279      1.0  0.86177  0.89514  0.32795  1.0000
  O   O73       1.0  0.86569  0.86636  0.19161  1.0000
  H   H145      1.0  0.83606  0.85471  0.20478  1.0000
  H   H146      1.0  0.86793  0.84513  0.20518  1.0000
  C   C280      1.0  0.17233  0.61290  0.26889  1.0000
  C   C281      1.0  0.15605  0.60570  0.26294  1.0000
  C   C282      1.0  0.14574  0.61189  0.33581  1.0000
  O   O74       1.0  0.15046  0.59445  0.18401  1.0000
  H   H147      1.0  0.17928  0.61043  0.21297  1.0000
  H   H148      1.0  0.14636  0.61173  0.14983  1.0000
  C   C283      1.0  0.15683  0.90740  0.29189  1.0000
  C   C284      1.0  0.17291  0.89841  0.29421  1.0000
  C   C285      1.0  0.17819  0.87787  0.36041  1.0000
  H   H149      1.0  0.15324  0.92148  0.24141  1.0000
  O   O75       1.0  0.18288  0.90848  0.22892  1.0000
  H   H150      1.0  0.18204  0.89410  0.17894  1.0000
  C   C286      1.0  0.85166  0.60727  0.27543  1.0000
  C   C287      1.0  0.83544  0.61521  0.27632  1.0000
  C   C288      1.0  0.82832  0.62592  0.35628  1.0000
  H   H151      1.0  0.85664  0.59993  0.21663  1.0000
  O   O76       1.0  0.82704  0.61351  0.19842  1.0000
  H   H152      1.0  0.82879  0.63266  0.16677  1.0000
  C   C289      1.0  0.09815  0.67546  0.34659  1.0000
  C   C290      1.0  0.08889  0.70178  0.34516  1.0000
  C   C291      1.0  0.07204  0.70066  0.34815  1.0000
  H   H153      1.0  0.11016  0.67859  0.34379  1.0000
  O   O77       1.0  0.09729  0.72780  0.33783  1.0000
  H   H154      1.0  0.09791  0.73238  0.27326  1.0000
  C   C292      1.0  0.91013  0.83428  0.29461  1.0000
  C   C293      1.0  0.91941  0.80799  0.29284  1.0000
  C   C294      1.0  0.93578  0.80851  0.31564  1.0000
  H   H155      1.0  0.89843  0.83174  0.27822  1.0000
  O   O78       1.0  0.91169  0.78267  0.26586  1.0000
  H   H156      1.0  0.91423  0.77997  0.20190  1.0000
  C   C295      1.0  0.94156  0.67076  0.33610  1.0000
  C   C296      1.0  0.93208  0.64424  0.33703  1.0000
  C   C297      1.0  0.91524  0.64571  0.34075  1.0000
  O   O79       1.0  0.93965  0.61723  0.33520  1.0000
  H   H157      1.0  0.95360  0.66833  0.33243  1.0000
  H   H158      1.0  0.94063  0.61172  0.27148  1.0000
  C   C298      1.0  0.06492  0.83812  0.34366  1.0000
  C   C299      1.0  0.07438  0.86466  0.34097  1.0000
  C   C300      1.0  0.09094  0.86379  0.35933  1.0000
  O   O80       1.0  0.06719  0.89096  0.31811  1.0000
  H   H159      1.0  0.05320  0.83989  0.32663  1.0000
  H   H160      1.0  0.06741  0.89197  0.25215  1.0000
  C   C301      1.0  0.59822  0.92570  0.33429  1.0000
  C   C302      1.0  0.58888  0.95190  0.33478  1.0000
  C   C303      1.0  0.57208  0.95056  0.34190  1.0000
  H   H161      1.0  0.61019  0.92895  0.32880  1.0000
  O   O81       1.0  0.59712  0.97803  0.32522  1.0000
  H   H162      1.0  0.59713  0.98269  0.26060  1.0000
  C   C304      1.0  0.41021  0.58373  0.29209  1.0000
  C   C305      1.0  0.41947  0.55742  0.29192  1.0000
  C   C306      1.0  0.43582  0.55808  0.31488  1.0000
  H   H163      1.0  0.39852  0.58110  0.27565  1.0000
  O   O82       1.0  0.41174  0.53193  0.26633  1.0000
  H   H164      1.0  0.41425  0.52889  0.20246  1.0000
  C   C307      1.0  0.44165  0.92047  0.33885  1.0000
  C   C308      1.0  0.43217  0.89396  0.34067  1.0000
  C   C309      1.0  0.41535  0.89545  0.34668  1.0000
  O   O83       1.0  0.43973  0.86694  0.33783  1.0000
  H   H165      1.0  0.45368  0.91804  0.33366  1.0000
  H   H166      1.0  0.44058  0.86157  0.27394  1.0000
  C   C310      1.0  0.56490  0.58785  0.34608  1.0000
  C   C311      1.0  0.57438  0.61437  0.34485  1.0000
  C   C312      1.0  0.59093  0.61333  0.36335  1.0000
  O   O84       1.0  0.56720  0.64083  0.32351  1.0000
  H   H167      1.0  0.55318  0.58975  0.32918  1.0000
  H   H168      1.0  0.56741  0.64224  0.25761  1.0000
  C   C313      1.0  0.11904  0.52009  0.26203  1.0000
  C   C314      1.0  0.11953  0.98857  0.26239  1.0000
  C   C315      1.0  0.10702  0.97136  0.30078  1.0000
  H   H169      1.0  0.12847  0.53080  0.23281  1.0000
  O   O85       1.0  0.13210  0.97573  0.21884  1.0000
  H   H170      1.0  0.14158  0.97924  0.25601  1.0000
  C   C316      1.0  0.91383  0.98729  0.34600  1.0000
  C   C317      1.0  0.91392  0.51940  0.34389  1.0000
  C   C318      1.0  0.90048  0.53623  0.37239  1.0000
  H   H171      1.0  0.92311  0.97600  0.31723  1.0000
  O   O86       1.0  0.92651  0.53361  0.30579  1.0000
  H   H172      1.0  0.92414  0.53524  0.24130  1.0000
  C   C319      1.0  0.61944  0.76955  0.27064  1.0000
  C   C320      1.0  0.61982  0.73805  0.27106  1.0000
  C   C321      1.0  0.60718  0.72103  0.30870  1.0000
  H   H173      1.0  0.62894  0.78006  0.24148  1.0000
  O   O87       1.0  0.63238  0.72507  0.22777  1.0000
  H   H174      1.0  0.64188  0.72880  0.26456  1.0000
  C   C322      1.0  0.41385  0.73704  0.34237  1.0000
  C   C323      1.0  0.41390  0.76917  0.34219  1.0000
  C   C324      1.0  0.40045  0.78578  0.37150  1.0000
  H   H175      1.0  0.42317  0.72597  0.31336  1.0000
  O   O88       1.0  0.42656  0.78368  0.30579  1.0000
  H   H176      1.0  0.42429  0.78584  0.24133  1.0000
  C   C325      1.0  0.99507  0.77916  0.31227  1.0000
  C   C326      1.0  0.01183  0.77980  0.31230  1.0000
  C   C327      1.0  0.02084  0.75439  0.34002  1.0000
  O   O89       1.0  0.01883  0.80575  0.28416  1.0000
  H   H177      1.0  0.98924  0.79804  0.29084  1.0000
  H   H178      1.0  0.02136  0.80281  0.22029  1.0000
  C   C328      1.0  0.49508  0.52887  0.31215  1.0000
  C   C329      1.0  0.51183  0.52953  0.31191  1.0000
  C   C330      1.0  0.52084  0.50413  0.33967  1.0000
  O   O90       1.0  0.51882  0.55544  0.28338  1.0000
  H   H179      1.0  0.48923  0.54773  0.29066  1.0000
  H   H180      1.0  0.52136  0.55241  0.21955  1.0000
  C   C331      1.0  0.31422  0.61323  0.32330  1.0000
  N   N61       1.0  0.29959  0.62645  0.33060  1.0000
  C   C332      1.0  0.28615  0.60948  0.34261  1.0000
  N   N62       1.0  0.28787  0.57918  0.34671  1.0000
  C   C333      1.0  0.30216  0.56593  0.34135  1.0000
  N   N63       1.0  0.31517  0.58286  0.32901  1.0000
  C   C334      1.0  0.69343  0.89221  0.32491  1.0000
  N   N64       1.0  0.70809  0.87938  0.33430  1.0000
  C   C335      1.0  0.72142  0.89678  0.34449  1.0000
  N   N65       1.0  0.71947  0.92705  0.34589  1.0000
  C   C336      1.0  0.70511  0.93995  0.33752  1.0000
  N   N66       1.0  0.69219  0.92258  0.32667  1.0000
  C   C337      1.0  0.69307  0.61239  0.35354  1.0000
  N   N67       1.0  0.70766  0.62579  0.34650  1.0000
  C   C338      1.0  0.72120  0.60898  0.33570  1.0000
  N   N68       1.0  0.71961  0.57863  0.33265  1.0000
  C   C339      1.0  0.70536  0.56518  0.33750  1.0000
  N   N69       1.0  0.69228  0.58199  0.34846  1.0000
  C   C340      1.0  0.31378  0.89341  0.35968  1.0000
  N   N70       1.0  0.29919  0.88025  0.35006  1.0000
  C   C341      1.0  0.28576  0.89725  0.33750  1.0000
  N   N71       1.0  0.28749  0.92757  0.33456  1.0000
  C   C342      1.0  0.30175  0.94081  0.34281  1.0000
  N   N72       1.0  0.31471  0.92381  0.35579  1.0000
  C   C343      1.0  0.81433  0.86331  0.32895  1.0000
  N   N73       1.0  0.79952  0.87594  0.33256  1.0000
  C   C344      1.0  0.78622  0.85820  0.33754  1.0000
  N   N74       1.0  0.78823  0.82797  0.34149  1.0000
  C   C345      1.0  0.80273  0.81538  0.33985  1.0000
  N   N75       1.0  0.81563  0.83296  0.33295  1.0000
  C   C346      1.0  0.19319  0.64176  0.34169  1.0000
  N   N76       1.0  0.20802  0.62935  0.33683  1.0000
  C   C347      1.0  0.22124  0.64719  0.33010  1.0000
  N   N77       1.0  0.21912  0.67743  0.32885  1.0000
  C   C348      1.0  0.20458  0.68983  0.33241  1.0000
  N   N78       1.0  0.19172  0.67209  0.33966  1.0000
  C   C349      1.0  0.19293  0.86267  0.35317  1.0000
  N   N79       1.0  0.20770  0.87549  0.34944  1.0000
  C   C350      1.0  0.22108  0.85794  0.34481  1.0000
  N   N80       1.0  0.21920  0.82768  0.34112  1.0000
  C   C351      1.0  0.20475  0.81488  0.34286  1.0000
  N   N81       1.0  0.19178  0.83229  0.34944  1.0000
  C   C352      1.0  0.81393  0.64207  0.35306  1.0000
  N   N82       1.0  0.79903  0.62993  0.34923  1.0000
  C   C353      1.0  0.78588  0.64809  0.34758  1.0000
  N   N83       1.0  0.78816  0.67828  0.34746  1.0000
  C   C354      1.0  0.80278  0.69038  0.35035  1.0000
  N   N84       1.0  0.81559  0.67237  0.35310  1.0000
  C   C355      1.0  0.10209  0.62058  0.34102  1.0000
  N   N85       1.0  0.09788  0.59083  0.32878  1.0000
  C   C356      1.0  0.10892  0.56847  0.31418  1.0000
  N   N86       1.0  0.12438  0.57724  0.31614  1.0000
  C   C357      1.0  0.12935  0.60544  0.33139  1.0000
  N   N87       1.0  0.11800  0.62639  0.34340  1.0000
  C   C358      1.0  0.90562  0.88804  0.32612  1.0000
  N   N88       1.0  0.90953  0.91757  0.34437  1.0000
  C   C359      1.0  0.89825  0.93933  0.36039  1.0000
  N   N89       1.0  0.88290  0.93027  0.35441  1.0000
  C   C360      1.0  0.87814  0.90223  0.33443  1.0000
  N   N90       1.0  0.88978  0.88188  0.32096  1.0000
  C   C361      1.0  0.90477  0.62033  0.34392  1.0000
  N   N91       1.0  0.90902  0.59040  0.35054  1.0000
  C   C362      1.0  0.89800  0.56778  0.36077  1.0000
  N   N92       1.0  0.88251  0.57637  0.35897  1.0000
  C   C363      1.0  0.87757  0.60484  0.34912  1.0000
  N   N93       1.0  0.88887  0.62619  0.34392  1.0000
  C   C364      1.0  0.10161  0.88871  0.35065  1.0000
  N   N94       1.0  0.09780  0.91824  0.33179  1.0000
  C   C365      1.0  0.10916  0.93993  0.31649  1.0000
  N   N95       1.0  0.12449  0.93077  0.32377  1.0000
  C   C366      1.0  0.12916  0.90270  0.34435  1.0000
  N   N96       1.0  0.11742  0.88248  0.35696  1.0000
  C   C367      1.0  0.60231  0.87081  0.33362  1.0000
  N   N97       1.0  0.59815  0.84079  0.32853  1.0000
  C   C368      1.0  0.60924  0.81824  0.31890  1.0000
  N   N98       1.0  0.62469  0.82710  0.31973  1.0000
  C   C369      1.0  0.62957  0.85567  0.32713  1.0000
  N   N99       1.0  0.61819  0.87687  0.33196  1.0000
  C   C370      1.0  0.40570  0.63767  0.32066  1.0000
  N   N100      1.0  0.40960  0.66718  0.33914  1.0000
  C   C371      1.0  0.39828  0.68897  0.35373  1.0000
  N   N101      1.0  0.38294  0.67998  0.34574  1.0000
  C   C372      1.0  0.37819  0.65198  0.32522  1.0000
  N   N102      1.0  0.38988  0.63158  0.31376  1.0000
  C   C373      1.0  0.40490  0.87007  0.35051  1.0000
  N   N103      1.0  0.40908  0.84004  0.35349  1.0000
  C   C374      1.0  0.39802  0.81745  0.36295  1.0000
  N   N104      1.0  0.38256  0.82627  0.36431  1.0000
  C   C375      1.0  0.37762  0.85490  0.35950  1.0000
  N   N105      1.0  0.38904  0.87604  0.35440  1.0000
  C   C376      1.0  0.60161  0.63829  0.35637  1.0000
  N   N106      1.0  0.59782  0.66788  0.33829  1.0000
  C   C377      1.0  0.60921  0.68959  0.32446  1.0000
  N   N107      1.0  0.62452  0.68037  0.33258  1.0000
  C   C378      1.0  0.62918  0.65224  0.35252  1.0000
  N   N108      1.0  0.61740  0.63201  0.36334  1.0000
  C   C379      1.0  0.06234  0.78214  0.35704  1.0000
  N   N109      1.0  0.04625  0.78090  0.34926  1.0000
  C   C380      1.0  0.03791  0.75451  0.34402  1.0000
  N   N110      1.0  0.04649  0.72827  0.34496  1.0000
  C   C381      1.0  0.06266  0.72749  0.34984  1.0000
  N   N111      1.0  0.06973  0.75493  0.35650  1.0000
  C   C382      1.0  0.94434  0.72689  0.33419  1.0000
  N   N112      1.0  0.96051  0.72753  0.33749  1.0000
  C   C383      1.0  0.96921  0.75357  0.33544  1.0000
  N   N113      1.0  0.96093  0.78005  0.32882  1.0000
  C   C384      1.0  0.94481  0.78140  0.32262  1.0000
  N   N114      1.0  0.93733  0.75432  0.32610  1.0000
  C   C385      1.0  0.56231  0.53183  0.35624  1.0000
  N   N115      1.0  0.54621  0.53064  0.34930  1.0000
  C   C386      1.0  0.53790  0.50425  0.34311  1.0000
  N   N116      1.0  0.54647  0.97801  0.34218  1.0000
  C   C387      1.0  0.56264  0.97728  0.34581  1.0000
  N   N117      1.0  0.56971  0.50467  0.35357  1.0000
  C   C388      1.0  0.44442  0.97658  0.33629  1.0000
  N   N118      1.0  0.46058  0.97723  0.33904  1.0000
  C   C389      1.0  0.46926  0.00327  0.33599  1.0000
  N   N119      1.0  0.46098  0.52972  0.32874  1.0000
  C   C390      1.0  0.44486  0.53102  0.32288  1.0000
  N   N120      1.0  0.43739  0.00395  0.32751  1.0000
  C   C391      1.0  0.25809  0.60330  0.38605  1.0000
  C   C392      1.0  0.24195  0.61129  0.38069  1.0000
  C   C393      1.0  0.23726  0.63694  0.33111  1.0000
  H   H181      1.0  0.26093  0.58456  0.42265  1.0000
  O   O91       1.0  0.23126  0.59382  0.42519  1.0000
  H   H182      1.0  0.22994  0.60293  0.48491  1.0000
  C   C394      1.0  0.74955  0.90363  0.38701  1.0000
  C   C395      1.0  0.76566  0.89527  0.38343  1.0000
  C   C396      1.0  0.77023  0.86862  0.33848  1.0000
  H   H183      1.0  0.74676  0.92308  0.42033  1.0000
  O   O92       1.0  0.77647  0.91330  0.42482  1.0000
  H   H184      1.0  0.77795  0.90500  0.48548  1.0000
  C   C397      1.0  0.75761  0.65540  0.38401  1.0000
  C   C398      1.0  0.74154  0.64678  0.37991  1.0000
  C   C399      1.0  0.73707  0.62023  0.33391  1.0000
  O   O93       1.0  0.73072  0.66435  0.42298  1.0000
  H   H185      1.0  0.76035  0.67453  0.41905  1.0000
  H   H186      1.0  0.72976  0.65621  0.48415  1.0000
  C   C400      1.0  0.24921  0.85112  0.38418  1.0000
  C   C401      1.0  0.26529  0.85971  0.38089  1.0000
  C   C402      1.0  0.26985  0.88621  0.33491  1.0000
  O   O94       1.0  0.27600  0.84207  0.42455  1.0000
  H   H187      1.0  0.24643  0.83194  0.41888  1.0000
  H   H188      1.0  0.27689  0.85024  0.48574  1.0000
  C   C403      1.0  0.30432  0.98754  0.42344  1.0000
  C   C404      1.0  0.30449  0.51912  0.42427  1.0000
  C   C405      1.0  0.30324  0.53483  0.34212  1.0000
  O   O95       1.0  0.30489  0.53363  0.50477  1.0000
  H   H189      1.0  0.30471  0.97609  0.48319  1.0000
  H   H190      1.0  0.31600  0.53938  0.51464  1.0000
  C   C406      1.0  0.70722  0.51849  0.41842  1.0000
  C   C407      1.0  0.70694  0.98693  0.41988  1.0000
  C   C408      1.0  0.70383  0.97108  0.33948  1.0000
  O   O96       1.0  0.71023  0.97259  0.49853  1.0000
  H   H191      1.0  0.70978  0.52997  0.47636  1.0000
  H   H192      1.0  0.69997  0.96627  0.52354  1.0000
  C   C409      1.0  0.80462  0.73774  0.42833  1.0000
  C   C410      1.0  0.80464  0.76932  0.42673  1.0000
  C   C411      1.0  0.80426  0.78434  0.34312  1.0000
  O   O97       1.0  0.80395  0.78449  0.50608  1.0000
  H   H193      1.0  0.80423  0.72681  0.48893  1.0000
  H   H194      1.0  0.81486  0.79087  0.51942  1.0000
  C   C412      1.0  0.20309  0.76749  0.42061  1.0000
  C   C413      1.0  0.20283  0.73591  0.41899  1.0000
  C   C414      1.0  0.20311  0.72089  0.33536  1.0000
  O   O98       1.0  0.20357  0.72072  0.49832  1.0000
  H   H195      1.0  0.20351  0.77840  0.48123  1.0000
  H   H196      1.0  0.19258  0.71547  0.51373  1.0000
  C   C415      1.0  0.35058  0.65803  0.37707  1.0000
  C   C416      1.0  0.33445  0.64944  0.37613  1.0000
  C   C417      1.0  0.32899  0.62808  0.31284  1.0000
  H   H197      1.0  0.35428  0.67265  0.42588  1.0000
  O   O99       1.0  0.32462  0.66070  0.44039  1.0000
  H   H198      1.0  0.32548  0.64713  0.49235  1.0000
  C   C418      1.0  0.65593  0.85485  0.39596  1.0000
  C   C419      1.0  0.67215  0.86272  0.39511  1.0000
  C   C420      1.0  0.67883  0.87679  0.31861  1.0000
  H   H199      1.0  0.65126  0.84516  0.45253  1.0000
  O   O100      1.0  0.68092  0.85793  0.47056  1.0000
  H   H200      1.0  0.67951  0.87586  0.50851  1.0000
  C   C421      1.0  0.66701  0.61467  0.42429  1.0000
  C   C422      1.0  0.65087  0.62274  0.42147  1.0000
  C   C423      1.0  0.64553  0.64469  0.35953  1.0000
  O   O101      1.0  0.64082  0.60973  0.48165  1.0000
  H   H201      1.0  0.67038  0.59817  0.46844  1.0000
  H   H202      1.0  0.63895  0.58905  0.46059  1.0000
  C   C424      1.0  0.33955  0.89029  0.43299  1.0000
  C   C425      1.0  0.35574  0.88273  0.42999  1.0000
  C   C426      1.0  0.36129  0.86193  0.36544  1.0000
  O   O102      1.0  0.36569  0.89505  0.49202  1.0000
  H   H203      1.0  0.33598  0.90606  0.47896  1.0000
  H   H204      1.0  0.36818  0.91545  0.47071  1.0000
  C   C427      1.0  0.85082  0.90624  0.39210  1.0000
  C   C428      1.0  0.83469  0.89759  0.39058  1.0000
  C   C429      1.0  0.82896  0.87873  0.32124  1.0000
  H   H205      1.0  0.85474  0.91916  0.44452  1.0000
  O   O103      1.0  0.82510  0.90633  0.45934  1.0000
  H   H206      1.0  0.82619  0.89094  0.50643  1.0000
  C   C430      1.0  0.15215  0.62436  0.41502  1.0000
  C   C431      1.0  0.16837  0.63172  0.42075  1.0000
  C   C432      1.0  0.17868  0.62600  0.34748  1.0000
  H   H207      1.0  0.14496  0.62875  0.46890  1.0000
  O   O104      1.0  0.17399  0.64440  0.49783  1.0000
  H   H208      1.0  0.17021  0.66533  0.49873  1.0000
  C   C433      1.0  0.16701  0.86717  0.42378  1.0000
  C   C434      1.0  0.15088  0.87512  0.41922  1.0000
  C   C435      1.0  0.14550  0.89527  0.35217  1.0000
  O   O105      1.0  0.14085  0.86385  0.48262  1.0000
  H   H209      1.0  0.17042  0.85191  0.47166  1.0000
  H   H210      1.0  0.13883  0.84276  0.46621  1.0000
  C   C436      1.0  0.83790  0.62921  0.43370  1.0000
  C   C437      1.0  0.85419  0.62225  0.43212  1.0000
  C   C438      1.0  0.86124  0.61148  0.35222  1.0000
  O   O106      1.0  0.86283  0.62607  0.50850  1.0000
  H   H211      1.0  0.83323  0.63842  0.49101  1.0000
  H   H212      1.0  0.86682  0.64685  0.50686  1.0000
  C   C439      1.0  0.06536  0.67128  0.34815  1.0000
  C   C440      1.0  0.07479  0.64466  0.34727  1.0000
  C   C441      1.0  0.09164  0.64597  0.34646  1.0000
  O   O107      1.0  0.06714  0.61772  0.34580  1.0000
  H   H213      1.0  0.05329  0.66892  0.34913  1.0000
  H   H214      1.0  0.06603  0.61148  0.40884  1.0000
  C   C442      1.0  0.94231  0.83747  0.33208  1.0000
  C   C443      1.0  0.93286  0.86403  0.33414  1.0000
  C   C444      1.0  0.91625  0.86306  0.31753  1.0000
  O   O108      1.0  0.94014  0.89047  0.35449  1.0000
  H   H215      1.0  0.95408  0.83933  0.34778  1.0000
  H   H216      1.0  0.94021  0.89190  0.42040  1.0000
  C   C445      1.0  0.90879  0.67523  0.34410  1.0000
  C   C446      1.0  0.91811  0.70146  0.34462  1.0000
  C   C447      1.0  0.93492  0.70017  0.33805  1.0000
  H   H217      1.0  0.89681  0.67841  0.34924  1.0000
  O   O109      1.0  0.90986  0.72757  0.35451  1.0000
  H   H218      1.0  0.90985  0.73213  0.41918  1.0000
  C   C448      1.0  0.09696  0.83515  0.38458  1.0000
  C   C449      1.0  0.08766  0.80891  0.38731  1.0000
  C   C450      1.0  0.07137  0.80928  0.36281  1.0000
  H   H219      1.0  0.10860  0.83272  0.40248  1.0000
  O   O110      1.0  0.09524  0.78383  0.41728  1.0000
  H   H220      1.0  0.09245  0.78173  0.48111  1.0000
  C   C451      1.0  0.56547  0.92112  0.34378  1.0000
  C   C452      1.0  0.57498  0.89462  0.34214  1.0000
  C   C453      1.0  0.59181  0.89614  0.33744  1.0000
  O   O111      1.0  0.56743  0.86758  0.34392  1.0000
  H   H221      1.0  0.55343  0.91866  0.34787  1.0000
  H   H222      1.0  0.56650  0.86202  0.40761  1.0000
  C   C454      1.0  0.44236  0.58709  0.33024  1.0000
  C   C455      1.0  0.43291  0.61366  0.33104  1.0000
  C   C456      1.0  0.41633  0.61263  0.31379  1.0000
  O   O112      1.0  0.44019  0.64019  0.35036  1.0000
  H   H223      1.0  0.45412  0.58902  0.34608  1.0000
  H   H224      1.0  0.44024  0.64192  0.41621  1.0000
  C   C457      1.0  0.40893  0.92498  0.35101  1.0000
  C   C458      1.0  0.41824  0.95122  0.34999  1.0000
  C   C459      1.0  0.43502  0.94987  0.34143  1.0000
  H   H225      1.0  0.39697  0.92819  0.35741  1.0000
  O   O113      1.0  0.41004  0.97736  0.36048  1.0000
  H   H226      1.0  0.41029  0.98205  0.42504  1.0000
  C   C460      1.0  0.59694  0.58452  0.38682  1.0000
  C   C461      1.0  0.58764  0.55827  0.38773  1.0000
  C   C462      1.0  0.57135  0.55889  0.36344  1.0000
  H   H227      1.0  0.60859  0.58192  0.40448  1.0000
  O   O114      1.0  0.59524  0.53293  0.41567  1.0000
  H   H228      1.0  0.59252  0.53033  0.47943  1.0000
  C   C463      1.0  0.09341  0.98775  0.32838  1.0000
  C   C464      1.0  0.09318  0.51987  0.32986  1.0000
  C   C465      1.0  0.10658  0.53689  0.30169  1.0000
  O   O115      1.0  0.08041  0.53394  0.36655  1.0000
  H   H229      1.0  0.08410  0.97641  0.35655  1.0000
  H   H230      1.0  0.08252  0.53545  0.43136  1.0000
  C   C466      1.0  0.88823  0.51938  0.41382  1.0000
  C   C467      1.0  0.88795  0.98788  0.41515  1.0000
  C   C468      1.0  0.90039  0.97077  0.37562  1.0000
  O   O116      1.0  0.87572  0.97493  0.46146  1.0000
  H   H231      1.0  0.87886  0.53004  0.44393  1.0000
  H   H232      1.0  0.86599  0.97817  0.42619  1.0000
  C   C469      1.0  0.59354  0.73759  0.33503  1.0000
  C   C470      1.0  0.59339  0.76972  0.33595  1.0000
  C   C471      1.0  0.60693  0.78655  0.30901  1.0000
  O   O117      1.0  0.58051  0.78401  0.37047  1.0000
  H   H233      1.0  0.58410  0.72636  0.36228  1.0000
  H   H234      1.0  0.58241  0.78595  0.43538  1.0000
  C   C472      1.0  0.38817  0.76859  0.41145  1.0000
  C   C473      1.0  0.38789  0.73710  0.41052  1.0000
  C   C474      1.0  0.40039  0.72032  0.37044  1.0000
  O   O118      1.0  0.37564  0.72379  0.45575  1.0000
  H   H235      1.0  0.37878  0.77895  0.44230  1.0000
  H   H236      1.0  0.36589  0.72765  0.42119  1.0000
  C   C475      1.0  0.01210  0.72852  0.36566  1.0000
  C   C476      1.0  0.99533  0.72791  0.36577  1.0000
  C   C477      1.0  0.98631  0.75335  0.33830  1.0000
  H   H237      1.0  0.01798  0.70969  0.38713  1.0000
  O   O119      1.0  0.98833  0.70195  0.39372  1.0000
  H   H238      1.0  0.98612  0.70458  0.45810  1.0000
  C   C478      1.0  0.51215  0.47827  0.36567  1.0000
  C   C479      1.0  0.49538  0.47765  0.36614  1.0000
  C   C480      1.0  0.48635  0.50307  0.33855  1.0000
  H   H239      1.0  0.51804  0.45947  0.38719  1.0000
  O   O120      1.0  0.48840  0.45171  0.39445  1.0000
  H   H240      1.0  0.48624  0.45439  0.45887  1.0000
