data_image0
_chemical_formula_structural       C9HC6H3CHC2HC6H3CHC2HC6H3CHC2NC2HNHCHC2NC2HNHCHC2NC2HNHCHC2HC6H3CHC2HC6H3CHC2HC6H3CHC2HC6H3CHC2HC6H3CHC2HC6H3CHC2NC2HNHCHC2NC2HNHCHC2NC2HNHCHC2NC2HNHCHC2NC2HNHCHC2NC2HNHCHC2HC6H3CHC2HC6H3CHC2HC6H3CHC2HC6H3CHC2HC6H3CHC2HC6H3CHNCNCN4CNCNCN4CNCNCN4CNCNCN4CNCNCN4CNCNCN4CNCNCN5CNCN5CNCN5CNCN5CNCN5CNCN5CNCN4CNCNCN4CNCNCN4CNCNCN4C2NC2HNHCHC2NC2HNHCHC2NC2HNHCHC2HC6H3CHC2HC6H3CHC2HC6H3CHC2NC2HNHCHC2NC2HNHCHC2NC2HNHCHC2NC2HNHCHC2NC2HNHCHC2NC2HNHCHC2HC6H3CHC2HC6H3CHC2HC6H3CHC2HC6H3CHC2HC6H3CHC2HC6H3CHC2NC2HNHCHC2NC2HNHCHC2NC2HNHCHC2NC2HNHCHC2NC2HNHCHC2NC2HNHCH
_chemical_formula_sum              "C384 H192 N144"
_cell_length_a       82.6817
_cell_length_b       82.6816
_cell_length_c       15.0018
_cell_angle_alpha    90
_cell_angle_beta     90
_cell_angle_gamma    120

_space_group_name_H-M_alt    "P 1"
_space_group_IT_number       1

loop_
  _space_group_symop_operation_xyz
  'x, y, z'

loop_
  _atom_site_type_symbol
  _atom_site_label
  _atom_site_symmetry_multiplicity
  _atom_site_fract_x
  _atom_site_fract_y
  _atom_site_fract_z
  _atom_site_occupancy
  C   C1        1.0  0.98352  0.98326  0.32615  1.0000
  C   C2        1.0  0.40630  0.15949  0.34998  1.0000
  C   C3        1.0  0.75307  0.59354  0.35001  1.0000
  C   C4        1.0  0.84036  0.24678  0.35012  1.0000
  C   C5        1.0  0.12717  0.61244  0.33978  1.0000
  C   C6        1.0  0.38741  0.51471  0.33978  1.0000
  C   C7        1.0  0.48513  0.87267  0.33978  1.0000
  C   C8        1.0  0.99562  0.11759  0.25795  1.0000
  C   C9        1.0  0.99516  0.13433  0.26897  1.0000
  H   H1        1.0  0.99622  0.14220  0.21414  1.0000
  C   C10       1.0  0.99296  0.08928  0.32525  1.0000
  C   C11       1.0  0.99043  0.05420  0.30863  1.0000
  C   C12       1.0  0.99316  0.06522  0.23208  1.0000
  C   C13       1.0  0.99459  0.08294  0.23943  1.0000
  C   C14       1.0  0.99709  0.09417  0.16403  1.0000
  C   C15       1.0  0.99767  0.11139  0.17326  1.0000
  H   H2        1.0  0.99822  0.08980  0.10172  1.0000
  H   H3        1.0  0.99917  0.11913  0.11742  1.0000
  H   H4        1.0  0.99384  0.06022  0.17050  1.0000
  C   C16       1.0  0.98756  0.03635  0.30120  1.0000
  H   H5        1.0  0.97571  0.02659  0.27371  1.0000
  C   C17       1.0  0.88225  0.87799  0.25803  1.0000
  C   C18       1.0  0.86550  0.86079  0.26907  1.0000
  H   H6        1.0  0.85764  0.85398  0.21424  1.0000
  C   C19       1.0  0.91056  0.90364  0.32531  1.0000
  C   C20       1.0  0.94564  0.93620  0.30868  1.0000
  C   C21       1.0  0.93461  0.92790  0.23212  1.0000
  C   C22       1.0  0.91690  0.91162  0.23949  1.0000
  C   C23       1.0  0.90566  0.90288  0.16410  1.0000
  C   C24       1.0  0.88845  0.88625  0.17334  1.0000
  H   H7        1.0  0.91004  0.90839  0.10178  1.0000
  H   H8        1.0  0.88071  0.88000  0.11750  1.0000
  H   H9        1.0  0.93962  0.93358  0.17054  1.0000
  C   C25       1.0  0.96349  0.95118  0.30124  1.0000
  H   H10       1.0  0.97325  0.94909  0.27372  1.0000
  C   C26       1.0  0.12184  0.00421  0.25809  1.0000
  C   C27       1.0  0.13905  0.00467  0.26915  1.0000
  H   H11       1.0  0.14586  0.00361  0.21433  1.0000
  C   C28       1.0  0.09619  0.00687  0.32534  1.0000
  C   C29       1.0  0.06364  0.00940  0.30866  1.0000
  C   C30       1.0  0.07194  0.00667  0.23212  1.0000
  C   C31       1.0  0.08822  0.00524  0.23950  1.0000
  C   C32       1.0  0.09697  0.00275  0.16413  1.0000
  C   C33       1.0  0.11360  0.00216  0.17338  1.0000
  H   H12       1.0  0.09146  0.00162  0.10180  1.0000
  H   H13       1.0  0.11985  0.00067  0.11756  1.0000
  H   H14       1.0  0.06626  0.00600  0.17053  1.0000
  C   C34       1.0  0.04866  0.01227  0.30119  1.0000
  H   H15       1.0  0.05074  0.02411  0.27363  1.0000
  C   C35       1.0  0.12026  0.36149  0.31549  1.0000
  C   C36       1.0  0.11097  0.34948  0.24310  1.0000
  N   N1        1.0  0.09855  0.33118  0.25765  1.0000
  C   C37       1.0  0.09430  0.32334  0.34018  1.0000
  C   C38       1.0  0.05727  0.27562  0.28698  1.0000
  H   H16       1.0  0.11313  0.35439  0.17908  1.0000
  N   N2        1.0  0.07134  0.29356  0.27996  1.0000
  H   H17       1.0  0.05067  0.26865  0.23002  1.0000
  C   C39       1.0  0.13152  0.38043  0.30164  1.0000
  H   H18       1.0  0.12640  0.38706  0.26629  1.0000
  C   C40       1.0  0.63835  0.75874  0.31549  1.0000
  C   C41       1.0  0.65036  0.76146  0.24309  1.0000
  N   N3        1.0  0.66867  0.76735  0.25763  1.0000
  C   C42       1.0  0.67650  0.77093  0.34016  1.0000
  C   C43       1.0  0.72422  0.78162  0.28694  1.0000
  H   H19       1.0  0.64546  0.75872  0.17906  1.0000
  N   N4        1.0  0.70628  0.77775  0.27994  1.0000
  H   H20       1.0  0.73119  0.78199  0.22998  1.0000
  C   C44       1.0  0.61941  0.75106  0.30164  1.0000
  H   H21       1.0  0.61278  0.73932  0.26627  1.0000
  C   C45       1.0  0.24111  0.87959  0.31549  1.0000
  C   C46       1.0  0.23840  0.88889  0.24309  1.0000
  N   N5        1.0  0.23252  0.90131  0.25763  1.0000
  C   C47       1.0  0.22894  0.90557  0.34015  1.0000
  C   C48       1.0  0.21827  0.94261  0.28692  1.0000
  H   H22       1.0  0.24114  0.88672  0.17908  1.0000
  N   N6        1.0  0.22213  0.92853  0.27992  1.0000
  H   H23       1.0  0.21789  0.94921  0.22996  1.0000
  C   C49       1.0  0.24879  0.86833  0.30166  1.0000
  H   H24       1.0  0.26053  0.87344  0.26629  1.0000
  C   C50       1.0  0.33351  0.10448  0.25129  1.0000
  C   C51       1.0  0.35260  0.11730  0.26695  1.0000
  H   H25       1.0  0.36094  0.12503  0.21503  1.0000
  C   C52       1.0  0.30338  0.07994  0.30945  1.0000
  C   C53       1.0  0.26605  0.05162  0.28188  1.0000
  C   C54       1.0  0.27682  0.06300  0.21000  1.0000
  C   C55       1.0  0.29551  0.07730  0.22278  1.0000
  C   C56       1.0  0.30663  0.08853  0.15163  1.0000
  C   C57       1.0  0.32546  0.10206  0.16583  1.0000
  H   H26       1.0  0.30122  0.08675  0.08870  1.0000
  H   H27       1.0  0.33333  0.10980  0.11290  1.0000
  H   H28       1.0  0.27115  0.06059  0.14731  1.0000
  C   C58       1.0  0.24850  0.03630  0.26783  1.0000
  H   H29       1.0  0.24543  0.03084  0.20671  1.0000
  C   C59       1.0  0.77088  0.66635  0.25139  1.0000
  C   C60       1.0  0.76461  0.64726  0.26703  1.0000
  H   H30       1.0  0.76402  0.63892  0.21511  1.0000
  C   C61       1.0  0.77643  0.69647  0.30956  1.0000
  C   C62       1.0  0.78540  0.73378  0.28199  1.0000
  C   C63       1.0  0.78606  0.72303  0.21015  1.0000
  C   C64       1.0  0.78168  0.70434  0.22292  1.0000
  C   C65       1.0  0.78182  0.69323  0.15179  1.0000
  C   C66       1.0  0.77653  0.67441  0.16598  1.0000
  H   H31       1.0  0.78548  0.69866  0.08889  1.0000
  H   H32       1.0  0.77643  0.66655  0.11306  1.0000
  H   H33       1.0  0.78934  0.72871  0.14747  1.0000
  C   C67       1.0  0.78760  0.75133  0.26799  1.0000
  H   H34       1.0  0.78515  0.75432  0.20681  1.0000
  C   C68       1.0  0.89535  0.22896  0.25146  1.0000
  C   C69       1.0  0.88253  0.23524  0.26712  1.0000
  H   H35       1.0  0.87478  0.23583  0.21521  1.0000
  C   C70       1.0  0.91992  0.22342  0.30960  1.0000
  C   C71       1.0  0.94826  0.21445  0.28200  1.0000
  C   C72       1.0  0.93686  0.21380  0.21015  1.0000
  C   C73       1.0  0.92255  0.21817  0.22295  1.0000
  C   C74       1.0  0.91129  0.21803  0.15183  1.0000
  C   C75       1.0  0.89776  0.22332  0.16603  1.0000
  H   H36       1.0  0.91306  0.21438  0.08891  1.0000
  H   H37       1.0  0.89000  0.22343  0.11312  1.0000
  H   H38       1.0  0.93926  0.21052  0.14747  1.0000
  C   C76       1.0  0.96361  0.21225  0.26798  1.0000
  H   H39       1.0  0.96905  0.21471  0.20681  1.0000
  C   C77       1.0  0.31221  0.48395  0.24144  1.0000
  C   C78       1.0  0.33132  0.49011  0.25511  1.0000
  H   H40       1.0  0.34078  0.49752  0.20598  1.0000
  C   C79       1.0  0.28014  0.46728  0.29901  1.0000
  C   C80       1.0  0.24195  0.45563  0.28170  1.0000
  C   C81       1.0  0.25453  0.46571  0.21209  1.0000
  C   C82       1.0  0.27371  0.47158  0.21956  1.0000
  C   C83       1.0  0.28657  0.48183  0.15140  1.0000
  C   C84       1.0  0.30567  0.48794  0.16219  1.0000
  H   H41       1.0  0.28217  0.48506  0.09381  1.0000
  H   H42       1.0  0.31476  0.49547  0.11219  1.0000
  H   H43       1.0  0.24976  0.46907  0.15599  1.0000
  C   C85       1.0  0.22358  0.45153  0.27712  1.0000
  H   H44       1.0  0.22100  0.46096  0.24934  1.0000
  C   C86       1.0  0.51589  0.82823  0.24144  1.0000
  C   C87       1.0  0.50973  0.84118  0.25510  1.0000
  H   H45       1.0  0.50233  0.84323  0.20597  1.0000
  C   C88       1.0  0.53256  0.81283  0.29901  1.0000
  C   C89       1.0  0.54421  0.78629  0.28171  1.0000
  C   C90       1.0  0.53414  0.78880  0.21209  1.0000
  C   C91       1.0  0.52826  0.80210  0.21956  1.0000
  C   C92       1.0  0.51802  0.80472  0.15139  1.0000
  C   C93       1.0  0.51191  0.81770  0.16219  1.0000
  H   H46       1.0  0.51478  0.79708  0.09380  1.0000
  H   H47       1.0  0.50438  0.81927  0.11218  1.0000
  H   H48       1.0  0.53078  0.78066  0.15599  1.0000
  C   C94       1.0  0.54831  0.77202  0.27712  1.0000
  H   H49       1.0  0.53888  0.76001  0.24934  1.0000
  C   C95       1.0  0.17162  0.68764  0.24144  1.0000
  C   C96       1.0  0.15866  0.66853  0.25509  1.0000
  H   H50       1.0  0.15662  0.65907  0.20596  1.0000
  C   C97       1.0  0.18701  0.71971  0.29903  1.0000
  C   C98       1.0  0.21355  0.75790  0.28175  1.0000
  C   C99       1.0  0.21105  0.74532  0.21213  1.0000
  C   C100      1.0  0.19774  0.72614  0.21958  1.0000
  C   C101      1.0  0.19513  0.71328  0.15142  1.0000
  C   C102      1.0  0.18214  0.69418  0.16220  1.0000
  H   H51       1.0  0.20277  0.71768  0.09383  1.0000
  H   H52       1.0  0.18059  0.68509  0.11219  1.0000
  H   H53       1.0  0.21919  0.75010  0.15603  1.0000
  C   C103      1.0  0.22782  0.77627  0.27718  1.0000
  H   H54       1.0  0.23983  0.77885  0.24941  1.0000
  C   C104      1.0  0.48642  0.33669  0.33316  1.0000
  C   C105      1.0  0.47568  0.32310  0.26849  1.0000
  N   N7        1.0  0.46972  0.30481  0.28384  1.0000
  C   C106      1.0  0.47339  0.29846  0.36039  1.0000
  C   C107      1.0  0.45077  0.24817  0.31435  1.0000
  H   H55       1.0  0.47225  0.32675  0.20928  1.0000
  N   N8        1.0  0.45698  0.26671  0.30731  1.0000
  H   H56       1.0  0.44386  0.23975  0.26132  1.0000
  C   C108      1.0  0.49181  0.35521  0.31885  1.0000
  H   H57       1.0  0.48262  0.35814  0.29109  1.0000
  C   C109      1.0  0.85016  0.51343  0.33314  1.0000
  C   C110      1.0  0.84730  0.52417  0.26847  1.0000
  N   N9        1.0  0.83498  0.53013  0.28382  1.0000
  C   C111      1.0  0.82495  0.52646  0.36038  1.0000
  C   C112      1.0  0.79728  0.54908  0.31435  1.0000
  H   H58       1.0  0.85438  0.52760  0.20925  1.0000
  N   N10       1.0  0.80960  0.54286  0.30730  1.0000
  H   H59       1.0  0.79577  0.55598  0.26133  1.0000
  C   C113      1.0  0.86328  0.50804  0.31881  1.0000
  H   H60       1.0  0.87539  0.51722  0.29105  1.0000
  C   C114      1.0  0.66315  0.14970  0.33308  1.0000
  C   C115      1.0  0.67675  0.15256  0.26841  1.0000
  N   N11       1.0  0.69503  0.16489  0.28376  1.0000
  C   C116      1.0  0.70139  0.17491  0.36033  1.0000
  C   C117      1.0  0.75168  0.20258  0.31431  1.0000
  H   H61       1.0  0.67310  0.14548  0.20919  1.0000
  N   N12       1.0  0.73314  0.19026  0.30726  1.0000
  H   H62       1.0  0.76009  0.20409  0.26129  1.0000
  C   C118      1.0  0.64464  0.13658  0.31875  1.0000
  H   H63       1.0  0.64171  0.12446  0.29098  1.0000
  C   C119      1.0  0.16419  0.48033  0.31353  1.0000
  C   C120      1.0  0.16658  0.49388  0.24954  1.0000
  N   N13       1.0  0.16034  0.50595  0.26617  1.0000
  C   C121      1.0  0.15177  0.50598  0.34344  1.0000
  C   C122      1.0  0.14153  0.54375  0.30138  1.0000
  H   H64       1.0  0.17304  0.49488  0.18999  1.0000
  N   N14       1.0  0.14769  0.53139  0.29275  1.0000
  H   H65       1.0  0.14323  0.55232  0.24880  1.0000
  C   C123      1.0  0.17150  0.46875  0.29888  1.0000
  H   H66       1.0  0.18409  0.47420  0.27101  1.0000
  C   C124      1.0  0.51952  0.68383  0.31353  1.0000
  C   C125      1.0  0.50596  0.67267  0.24954  1.0000
  N   N15       1.0  0.49390  0.65436  0.26617  1.0000
  C   C126      1.0  0.49387  0.64576  0.34343  1.0000
  C   C127      1.0  0.45611  0.59776  0.30136  1.0000
  H   H67       1.0  0.50497  0.67814  0.19000  1.0000
  N   N16       1.0  0.46846  0.61627  0.29274  1.0000
  H   H68       1.0  0.44753  0.59088  0.24878  1.0000
  C   C128      1.0  0.53110  0.70273  0.29889  1.0000
  H   H69       1.0  0.52565  0.70987  0.27103  1.0000
  C   C129      1.0  0.31601  0.83565  0.31356  1.0000
  C   C130      1.0  0.32717  0.83326  0.24956  1.0000
  N   N17       1.0  0.34547  0.83950  0.26619  1.0000
  C   C131      1.0  0.35408  0.84807  0.34344  1.0000
  C   C132      1.0  0.40208  0.85831  0.30136  1.0000
  H   H70       1.0  0.32170  0.82680  0.19002  1.0000
  N   N18       1.0  0.38357  0.85215  0.29274  1.0000
  H   H71       1.0  0.40896  0.85661  0.24878  1.0000
  C   C133      1.0  0.29711  0.82834  0.29892  1.0000
  H   H72       1.0  0.28997  0.81575  0.27107  1.0000
  C   C134      1.0  0.49248  0.14921  0.26175  1.0000
  C   C135      1.0  0.47945  0.15514  0.27862  1.0000
  H   H73       1.0  0.47003  0.15355  0.23014  1.0000
  C   C136      1.0  0.51889  0.14609  0.31438  1.0000
  C   C137      1.0  0.54453  0.13344  0.28972  1.0000
  C   C138      1.0  0.53169  0.13103  0.22156  1.0000
  C   C139      1.0  0.51880  0.13734  0.23272  1.0000
  C   C140      1.0  0.50569  0.13481  0.16604  1.0000
  C   C141      1.0  0.49265  0.14073  0.18036  1.0000
  H   H74       1.0  0.50542  0.12850  0.10691  1.0000
  H   H75       1.0  0.48320  0.13865  0.13128  1.0000
  H   H76       1.0  0.53142  0.12424  0.16391  1.0000
  C   C142      1.0  0.55549  0.12521  0.28181  1.0000
  H   H77       1.0  0.54998  0.11296  0.25041  1.0000
  C   C143      1.0  0.65661  0.50737  0.26174  1.0000
  C   C144      1.0  0.67557  0.52039  0.27860  1.0000
  H   H78       1.0  0.68340  0.52981  0.23013  1.0000
  C   C145      1.0  0.62708  0.48095  0.31437  1.0000
  C   C146      1.0  0.58879  0.45531  0.28972  1.0000
  C   C147      1.0  0.59922  0.46816  0.22156  1.0000
  C   C148      1.0  0.61842  0.48105  0.23272  1.0000
  C   C149      1.0  0.62899  0.49416  0.16604  1.0000
  C   C150      1.0  0.64795  0.50719  0.18036  1.0000
  H   H79       1.0  0.62295  0.49443  0.10692  1.0000
  H   H80       1.0  0.65532  0.51664  0.13128  1.0000
  H   H81       1.0  0.59269  0.46842  0.16392  1.0000
  C   C151      1.0  0.56960  0.44435  0.28181  1.0000
  H   H82       1.0  0.56286  0.44986  0.25042  1.0000
  C   C152      1.0  0.85064  0.34324  0.26181  1.0000
  C   C153      1.0  0.84471  0.32427  0.27872  1.0000
  H   H83       1.0  0.84630  0.31644  0.23025  1.0000
  C   C154      1.0  0.85375  0.37277  0.31439  1.0000
  C   C155      1.0  0.86640  0.41105  0.28966  1.0000
  C   C156      1.0  0.86881  0.40062  0.22151  1.0000
  C   C157      1.0  0.86250  0.38142  0.23271  1.0000
  C   C158      1.0  0.86503  0.37084  0.16604  1.0000
  C   C159      1.0  0.85911  0.35188  0.18040  1.0000
  H   H84       1.0  0.87133  0.37687  0.10690  1.0000
  H   H85       1.0  0.86118  0.34451  0.13133  1.0000
  H   H86       1.0  0.87560  0.40714  0.16385  1.0000
  C   C160      1.0  0.87462  0.43024  0.28170  1.0000
  H   H87       1.0  0.88687  0.43698  0.25027  1.0000
  C   C161      1.0  0.02142  0.54704  0.25669  1.0000
  C   C162      1.0  0.04073  0.55573  0.27465  1.0000
  H   H88       1.0  0.05001  0.56014  0.22262  1.0000
  C   C163      1.0  0.98936  0.53060  0.31393  1.0000
  C   C164      1.0  0.95067  0.50937  0.28540  1.0000
  C   C165      1.0  0.96293  0.51663  0.21189  1.0000
  C   C166      1.0  0.98242  0.52744  0.22519  1.0000
  C   C167      1.0  0.99507  0.53456  0.15315  1.0000
  C   C168      1.0  0.01443  0.54435  0.16881  1.0000
  H   H89       1.0  0.99031  0.53233  0.08883  1.0000
  H   H90       1.0  0.02335  0.54901  0.11552  1.0000
  H   H91       1.0  0.95769  0.51370  0.14833  1.0000
  C   C169      1.0  0.93191  0.49721  0.27272  1.0000
  H   H92       1.0  0.92809  0.48625  0.23286  1.0000
  C   C170      1.0  0.45280  0.47434  0.25673  1.0000
  C   C171      1.0  0.44412  0.48497  0.27467  1.0000
  H   H93       1.0  0.43971  0.48985  0.22263  1.0000
  C   C172      1.0  0.46924  0.45872  0.31399  1.0000
  C   C173      1.0  0.49047  0.44127  0.28550  1.0000
  C   C174      1.0  0.48321  0.44627  0.21198  1.0000
  C   C175      1.0  0.47240  0.45494  0.22526  1.0000
  C   C176      1.0  0.46529  0.46048  0.15321  1.0000
  C   C177      1.0  0.45550  0.47004  0.16884  1.0000
  H   H94       1.0  0.46752  0.45795  0.08888  1.0000
  H   H95       1.0  0.45084  0.47431  0.11554  1.0000
  H   H96       1.0  0.48616  0.44396  0.14842  1.0000
  C   C178      1.0  0.50263  0.43466  0.27285  1.0000
  H   H97       1.0  0.51359  0.44180  0.23294  1.0000
  C   C179      1.0  0.52551  0.97843  0.25673  1.0000
  C   C180      1.0  0.51488  0.95911  0.27467  1.0000
  H   H98       1.0  0.51001  0.94984  0.22264  1.0000
  C   C181      1.0  0.54113  0.01048  0.31398  1.0000
  C   C182      1.0  0.55858  0.04917  0.28548  1.0000
  C   C183      1.0  0.55359  0.03691  0.21196  1.0000
  C   C184      1.0  0.54492  0.01743  0.22524  1.0000
  C   C185      1.0  0.53938  0.00478  0.15320  1.0000
  C   C186      1.0  0.52981  0.98542  0.16884  1.0000
  H   H99       1.0  0.54191  0.00954  0.08887  1.0000
  H   H100      1.0  0.52555  0.97650  0.11554  1.0000
  H   H101      1.0  0.55589  0.04216  0.14839  1.0000
  C   C187      1.0  0.56519  0.06794  0.27281  1.0000
  H   H102      1.0  0.55805  0.07175  0.23289  1.0000
  N   N19       1.0  0.98340  0.99962  0.32657  1.0000
  C   C188      1.0  0.99962  0.01632  0.32607  1.0000
  N   N20       1.0  0.01608  0.01643  0.32654  1.0000
  C   C189      1.0  0.01658  0.00022  0.32610  1.0000
  N   N21       1.0  0.00022  0.98376  0.32659  1.0000
  N   N22       1.0  0.96728  0.96749  0.32759  1.0000
  N   N23       1.0  0.03235  0.99976  0.32757  1.0000
  N   N24       1.0  0.00008  0.03255  0.32753  1.0000
  C   C190      1.0  0.00045  0.18663  0.33478  1.0000
  N   N25       1.0  0.01653  0.20342  0.33544  1.0000
  C   C191      1.0  0.01607  0.21962  0.33495  1.0000
  N   N26       1.0  0.99928  0.21881  0.32939  1.0000
  C   C192      1.0  0.98304  0.20222  0.32677  1.0000
  N   N27       1.0  0.98378  0.18621  0.32995  1.0000
  N   N28       1.0  0.00148  0.17116  0.33296  1.0000
  N   N29       1.0  0.96673  0.20143  0.31873  1.0000
  N   N30       1.0  0.03172  0.23595  0.33509  1.0000
  C   C193      1.0  0.81321  0.81378  0.33487  1.0000
  N   N31       1.0  0.79642  0.81307  0.33549  1.0000
  C   C194      1.0  0.78023  0.79641  0.33497  1.0000
  N   N32       1.0  0.78103  0.78043  0.32939  1.0000
  C   C195      1.0  0.79763  0.78079  0.32679  1.0000
  N   N33       1.0  0.81364  0.79754  0.33003  1.0000
  N   N34       1.0  0.82868  0.83028  0.33308  1.0000
  N   N35       1.0  0.79842  0.76527  0.31876  1.0000
  N   N36       1.0  0.76389  0.79573  0.33508  1.0000
  C   C196      1.0  0.18607  0.99940  0.33494  1.0000
  N   N37       1.0  0.18679  0.98333  0.33555  1.0000
  C   C197      1.0  0.20345  0.98381  0.33500  1.0000
  N   N38       1.0  0.21943  0.00060  0.32941  1.0000
  C   C198      1.0  0.21905  0.01683  0.32684  1.0000
  N   N39       1.0  0.20230  0.01608  0.33009  1.0000
  N   N40       1.0  0.16956  0.99836  0.33315  1.0000
  N   N41       1.0  0.23456  0.03314  0.31877  1.0000
  N   N42       1.0  0.20414  0.96815  0.33510  1.0000
  C   C199      1.0  0.16057  0.40733  0.32375  1.0000
  N   N43       1.0  0.17902  0.41284  0.31881  1.0000
  C   C200      1.0  0.19209  0.43118  0.31100  1.0000
  N   N44       1.0  0.18644  0.44403  0.31109  1.0000
  C   C201      1.0  0.16811  0.43894  0.31655  1.0000
  N   N45       1.0  0.15529  0.42053  0.32377  1.0000
  N   N46       1.0  0.14835  0.38930  0.33133  1.0000
  N   N47       1.0  0.16263  0.45145  0.32209  1.0000
  N   N48       1.0  0.21002  0.43625  0.30835  1.0000
  C   C202      1.0  0.59251  0.75321  0.32376  1.0000
  N   N49       1.0  0.58701  0.76616  0.31881  1.0000
  C   C203      1.0  0.56866  0.76089  0.31101  1.0000
  N   N50       1.0  0.55581  0.74238  0.31110  1.0000
  C   C204      1.0  0.56090  0.72914  0.31656  1.0000
  N   N51       1.0  0.57932  0.73474  0.32379  1.0000
  N   N52       1.0  0.61055  0.75902  0.33133  1.0000
  N   N53       1.0  0.54840  0.71115  0.32209  1.0000
  N   N54       1.0  0.56359  0.77374  0.30835  1.0000
  C   C205      1.0  0.24664  0.83928  0.32386  1.0000
  N   N55       1.0  0.23369  0.82083  0.31891  1.0000
  C   C206      1.0  0.23895  0.80775  0.31113  1.0000
  N   N56       1.0  0.25746  0.81341  0.31118  1.0000
  C   C207      1.0  0.27070  0.83174  0.31662  1.0000
  N   N57       1.0  0.26511  0.84456  0.32385  1.0000
  N   N58       1.0  0.24083  0.85150  0.33139  1.0000
  N   N59       1.0  0.28869  0.83722  0.32213  1.0000
  N   N60       1.0  0.22610  0.78983  0.30843  1.0000
  N   N61       1.0  0.41174  0.17793  0.35498  1.0000
  C   C208      1.0  0.43006  0.19106  0.36317  1.0000
  N   N62       1.0  0.44296  0.18545  0.36324  1.0000
  C   C209      1.0  0.43794  0.16715  0.35778  1.0000
  N   N63       1.0  0.41955  0.15428  0.35014  1.0000
  N   N64       1.0  0.38829  0.14725  0.34152  1.0000
  N   N65       1.0  0.45053  0.16178  0.35204  1.0000
  N   N66       1.0  0.43514  0.20899  0.36540  1.0000
  N   N67       1.0  0.76607  0.58810  0.35501  1.0000
  C   C210      1.0  0.76087  0.56978  0.36319  1.0000
  N   N68       1.0  0.74238  0.55689  0.36328  1.0000
  C   C211      1.0  0.72908  0.56190  0.35786  1.0000
  N   N69       1.0  0.73461  0.58029  0.35018  1.0000
  N   N70       1.0  0.75883  0.61155  0.34155  1.0000
  N   N71       1.0  0.71113  0.54931  0.35204  1.0000
  N   N72       1.0  0.77373  0.56471  0.36541  1.0000
  N   N73       1.0  0.82191  0.23378  0.35507  1.0000
  C   C212      1.0  0.80879  0.23898  0.36324  1.0000
  N   N74       1.0  0.81440  0.25748  0.36335  1.0000
  C   C213      1.0  0.83271  0.27077  0.35798  1.0000
  N   N75       1.0  0.84557  0.26523  0.35031  1.0000
  N   N76       1.0  0.85260  0.24101  0.34166  1.0000
  N   N77       1.0  0.83808  0.28873  0.35220  1.0000
  N   N78       1.0  0.79085  0.22612  0.36543  1.0000
  N   N79       1.0  0.13465  0.60108  0.34468  1.0000
  C   C214      1.0  0.12352  0.58230  0.35352  1.0000
  N   N80       1.0  0.10470  0.57500  0.35464  1.0000
  C   C215      1.0  0.09692  0.58605  0.34959  1.0000
  N   N81       1.0  0.10827  0.60471  0.34082  1.0000
  N   N82       1.0  0.13845  0.63065  0.33099  1.0000
  N   N83       1.0  0.07869  0.57893  0.34450  1.0000
  N   N84       1.0  0.13095  0.57133  0.35472  1.0000
  N   N85       1.0  0.39877  0.53354  0.34468  1.0000
  C   C216      1.0  0.41755  0.54119  0.35351  1.0000
  N   N86       1.0  0.42484  0.52967  0.35462  1.0000
  C   C217      1.0  0.41380  0.51085  0.34958  1.0000
  N   N87       1.0  0.39514  0.50353  0.34082  1.0000
  N   N88       1.0  0.36920  0.50778  0.33102  1.0000
  N   N89       1.0  0.42092  0.49973  0.34449  1.0000
  N   N90       1.0  0.42852  0.55959  0.35470  1.0000
  N   N91       1.0  0.46630  0.86519  0.34466  1.0000
  C   C218      1.0  0.45865  0.87633  0.35349  1.0000
  N   N92       1.0  0.47017  0.89514  0.35463  1.0000
  C   C219      1.0  0.48899  0.90292  0.34960  1.0000
  N   N93       1.0  0.49631  0.89157  0.34082  1.0000
  N   N94       1.0  0.49206  0.86139  0.33101  1.0000
  N   N95       1.0  0.50012  0.92115  0.34451  1.0000
  N   N96       1.0  0.44025  0.86889  0.35469  1.0000
  C   C220      1.0  0.61320  0.12867  0.32846  1.0000
  N   N97       1.0  0.60182  0.13614  0.32537  1.0000
  C   C221      1.0  0.58307  0.12505  0.31513  1.0000
  N   N98       1.0  0.57583  0.10626  0.31051  1.0000
  C   C222      1.0  0.58688  0.09849  0.31367  1.0000
  N   N99       1.0  0.60552  0.10979  0.32392  1.0000
  N   N100      1.0  0.63141  0.13989  0.33809  1.0000
  N   N101      1.0  0.57976  0.08023  0.31445  1.0000
  N   N102      1.0  0.57202  0.13240  0.31515  1.0000
  C   C223      1.0  0.51534  0.38664  0.32856  1.0000
  N   N103      1.0  0.53419  0.39802  0.32545  1.0000
  C   C224      1.0  0.54186  0.41678  0.31521  1.0000
  N   N104      1.0  0.53031  0.42402  0.31056  1.0000
  C   C225      1.0  0.51148  0.41297  0.31373  1.0000
  N   N105      1.0  0.50415  0.39433  0.32399  1.0000
  N   N106      1.0  0.50836  0.36844  0.33817  1.0000
  N   N107      1.0  0.50034  0.42009  0.31449  1.0000
  N   N108      1.0  0.56026  0.42782  0.31519  1.0000
  C   C226      1.0  0.87118  0.48451  0.32848  1.0000
  N   N109      1.0  0.86371  0.46565  0.32536  1.0000
  C   C227      1.0  0.87479  0.45798  0.31507  1.0000
  N   N110      1.0  0.89358  0.46953  0.31043  1.0000
  C   C228      1.0  0.90136  0.48836  0.31361  1.0000
  N   N111      1.0  0.89006  0.49569  0.32390  1.0000
  N   N112      1.0  0.85996  0.49149  0.33812  1.0000
  N   N113      1.0  0.91962  0.49950  0.31435  1.0000
  N   N114      1.0  0.86744  0.43958  0.31509  1.0000
  C   C229      1.0  0.99229  0.13983  0.35407  1.0000
  C   C230      1.0  0.99016  0.12821  0.42737  1.0000
  N   N115      1.0  0.99076  0.11227  0.41527  1.0000
  C   C231      1.0  0.99334  0.10648  0.33438  1.0000
  C   C232      1.0  0.98922  0.06136  0.39220  1.0000
  H   H103      1.0  0.98778  0.13139  0.49015  1.0000
  N   N116      1.0  0.99037  0.07828  0.39741  1.0000
  H   H104      1.0  0.98691  0.05376  0.44935  1.0000
  C   C233      1.0  0.98973  0.15501  0.36453  1.0000
  H   H105      1.0  0.97839  0.15312  0.39681  1.0000
  C   C234      1.0  0.86001  0.85242  0.35417  1.0000
  C   C235      1.0  0.87163  0.86191  0.42747  1.0000
  N   N117      1.0  0.88757  0.87846  0.41535  1.0000
  C   C236      1.0  0.89336  0.88683  0.33446  1.0000
  C   C237      1.0  0.93848  0.92783  0.39226  1.0000
  H   H106      1.0  0.86845  0.85636  0.49025  1.0000
  N   N118      1.0  0.92155  0.91206  0.39747  1.0000
  H   H107      1.0  0.94608  0.93312  0.44940  1.0000
  C   C238      1.0  0.84483  0.83469  0.36464  1.0000
  H   H108      1.0  0.84672  0.82523  0.39688  1.0000
  C   C239      1.0  0.14741  0.00753  0.35426  1.0000
  C   C240      1.0  0.13791  0.00966  0.42755  1.0000
  N   N119      1.0  0.12136  0.00906  0.41541  1.0000
  C   C241      1.0  0.11300  0.00648  0.33450  1.0000
  C   C242      1.0  0.07200  0.01060  0.39225  1.0000
  H   H109      1.0  0.14346  0.01204  0.49033  1.0000
  N   N120      1.0  0.08777  0.00945  0.39749  1.0000
  H   H110      1.0  0.06671  0.01291  0.44938  1.0000
  C   C243      1.0  0.16514  0.01009  0.36475  1.0000
  H   H111      1.0  0.17459  0.02144  0.39703  1.0000
  C   C244      1.0  0.10324  0.33470  0.41580  1.0000
  C   C245      1.0  0.11634  0.35380  0.40230  1.0000
  H   H112      1.0  0.12251  0.36230  0.45625  1.0000
  C   C246      1.0  0.08047  0.30442  0.35146  1.0000
  C   C247      1.0  0.05108  0.26739  0.37179  1.0000
  C   C248      1.0  0.06037  0.27823  0.44765  1.0000
  C   C249      1.0  0.07523  0.29678  0.43855  1.0000
  C   C250      1.0  0.08441  0.30806  0.51325  1.0000
  C   C251      1.0  0.09837  0.32683  0.50195  1.0000
  H   H113      1.0  0.08074  0.30282  0.57646  1.0000
  H   H114      1.0  0.10453  0.33485  0.55719  1.0000
  H   H115      1.0  0.05591  0.27277  0.51011  1.0000
  C   C252      1.0  0.03487  0.25038  0.38111  1.0000
  H   H116      1.0  0.02516  0.24972  0.42275  1.0000
  C   C253      1.0  0.66515  0.76851  0.41579  1.0000
  C   C254      1.0  0.64605  0.76251  0.40230  1.0000
  H   H117      1.0  0.63755  0.76019  0.45624  1.0000
  C   C255      1.0  0.69542  0.77602  0.35144  1.0000
  C   C256      1.0  0.73245  0.78365  0.37176  1.0000
  C   C257      1.0  0.72162  0.78211  0.44762  1.0000
  C   C258      1.0  0.70306  0.77842  0.43853  1.0000
  C   C259      1.0  0.69178  0.77631  0.51323  1.0000
  C   C260      1.0  0.67301  0.77150  0.50194  1.0000
  H   H118      1.0  0.69703  0.77789  0.57644  1.0000
  H   H119      1.0  0.66500  0.76965  0.55718  1.0000
  H   H120      1.0  0.72707  0.78310  0.51008  1.0000
  C   C261      1.0  0.74946  0.78445  0.38107  1.0000
  H   H121      1.0  0.75012  0.77540  0.42273  1.0000
  C   C262      1.0  0.23135  0.89663  0.41579  1.0000
  C   C263      1.0  0.23734  0.88352  0.40230  1.0000
  H   H122      1.0  0.23967  0.87735  0.45626  1.0000
  C   C264      1.0  0.22386  0.91941  0.35142  1.0000
  C   C265      1.0  0.21623  0.94881  0.37173  1.0000
  C   C266      1.0  0.21777  0.93951  0.44760  1.0000
  C   C267      1.0  0.22146  0.92465  0.43851  1.0000
  C   C268      1.0  0.22355  0.91547  0.51322  1.0000
  C   C269      1.0  0.22836  0.90151  0.50193  1.0000
  H   H123      1.0  0.22198  0.91914  0.57642  1.0000
  H   H124      1.0  0.23021  0.89534  0.55718  1.0000
  H   H125      1.0  0.21678  0.94398  0.51006  1.0000
  C   C270      1.0  0.21543  0.96502  0.38103  1.0000
  H   H126      1.0  0.22448  0.97473  0.42267  1.0000
  C   C271      1.0  0.36048  0.11893  0.35246  1.0000
  C   C272      1.0  0.34863  0.10755  0.42147  1.0000
  N   N121      1.0  0.33033  0.09544  0.40499  1.0000
  C   C273      1.0  0.32233  0.09341  0.32353  1.0000
  C   C274      1.0  0.27460  0.05519  0.36671  1.0000
  H   H127      1.0  0.35364  0.10803  0.48433  1.0000
  N   N122      1.0  0.29263  0.06885  0.37721  1.0000
  H   H128      1.0  0.26766  0.04712  0.42063  1.0000
  C   C275      1.0  0.37942  0.13013  0.36735  1.0000
  H   H129      1.0  0.38608  0.12472  0.40015  1.0000
  C   C276      1.0  0.75832  0.63936  0.35248  1.0000
  C   C277      1.0  0.75877  0.65120  0.42148  1.0000
  N   N123      1.0  0.76495  0.66950  0.40503  1.0000
  C   C278      1.0  0.77095  0.67751  0.32362  1.0000
  C   C279      1.0  0.78040  0.72523  0.36679  1.0000
  H   H130      1.0  0.75421  0.64618  0.48431  1.0000
  N   N124      1.0  0.77604  0.70720  0.37729  1.0000
  H   H131      1.0  0.77923  0.73215  0.42069  1.0000
  C   C280      1.0  0.75058  0.62042  0.36735  1.0000
  H   H132      1.0  0.73850  0.61376  0.40011  1.0000
  C   C281      1.0  0.88092  0.24152  0.35259  1.0000
  C   C282      1.0  0.89231  0.24107  0.42158  1.0000
  N   N125      1.0  0.90443  0.23489  0.40510  1.0000
  C   C283      1.0  0.90645  0.22889  0.32368  1.0000
  C   C284      1.0  0.94471  0.21945  0.36681  1.0000
  H   H133      1.0  0.89185  0.24562  0.48441  1.0000
  N   N126      1.0  0.93104  0.22380  0.37732  1.0000
  H   H134      1.0  0.95280  0.22061  0.42071  1.0000
  C   C285      1.0  0.86972  0.24925  0.36749  1.0000
  H   H135      1.0  0.87513  0.26133  0.40024  1.0000
  C   C286      1.0  0.33748  0.48593  0.33523  1.0000
  C   C287      1.0  0.32396  0.47531  0.40035  1.0000
  N   N127      1.0  0.30570  0.46963  0.38596  1.0000
  C   C288      1.0  0.29932  0.47347  0.30997  1.0000
  C   C289      1.0  0.24919  0.45158  0.35849  1.0000
  H   H136      1.0  0.32764  0.47178  0.45920  1.0000
  N   N128      1.0  0.26768  0.45751  0.36455  1.0000
  H   H137      1.0  0.24083  0.44473  0.41176  1.0000
  C   C290      1.0  0.35597  0.49113  0.34862  1.0000
  H   H138      1.0  0.35887  0.48175  0.37426  1.0000
  C   C291      1.0  0.51391  0.85152  0.33522  1.0000
  C   C292      1.0  0.52453  0.84862  0.40034  1.0000
  N   N129      1.0  0.53021  0.83604  0.38596  1.0000
  C   C293      1.0  0.52637  0.82581  0.30997  1.0000
  C   C294      1.0  0.54826  0.79758  0.35850  1.0000
  H   H139      1.0  0.52807  0.85583  0.45920  1.0000
  N   N130      1.0  0.54233  0.81014  0.36455  1.0000
  H   H140      1.0  0.55511  0.79607  0.41176  1.0000
  C   C295      1.0  0.50871  0.86481  0.34861  1.0000
  H   H141      1.0  0.51809  0.87708  0.37426  1.0000
  C   C296      1.0  0.14832  0.66236  0.33520  1.0000
  C   C297      1.0  0.15122  0.67589  0.40032  1.0000
  N   N131      1.0  0.16379  0.69414  0.38595  1.0000
  C   C298      1.0  0.17403  0.70053  0.30997  1.0000
  C   C299      1.0  0.20226  0.75066  0.35852  1.0000
  H   H142      1.0  0.14400  0.67220  0.45917  1.0000
  N   N132      1.0  0.18970  0.73216  0.36457  1.0000
  H   H143      1.0  0.20377  0.75902  0.41180  1.0000
  C   C300      1.0  0.13503  0.64387  0.34857  1.0000
  H   H144      1.0  0.12276  0.64098  0.37423  1.0000
  C   C301      1.0  0.48399  0.31141  0.42847  1.0000
  C   C302      1.0  0.49043  0.33056  0.41383  1.0000
  H   H145      1.0  0.49791  0.34006  0.46268  1.0000
  C   C303      1.0  0.46687  0.27924  0.37238  1.0000
  C   C304      1.0  0.45464  0.24095  0.39173  1.0000
  C   C305      1.0  0.46483  0.25361  0.46092  1.0000
  C   C306      1.0  0.47100  0.27283  0.45242  1.0000
  C   C307      1.0  0.48138  0.28577  0.52011  1.0000
  C   C308      1.0  0.48779  0.30490  0.50830  1.0000
  H   H146      1.0  0.48449  0.28138  0.57811  1.0000
  H   H147      1.0  0.49541  0.31404  0.55800  1.0000
  H   H148      1.0  0.46809  0.24885  0.51741  1.0000
  C   C309      1.0  0.45037  0.22254  0.39714  1.0000
  H   H149      1.0  0.45972  0.21991  0.42557  1.0000
  C   C310      1.0  0.82730  0.51586  0.42845  1.0000
  C   C311      1.0  0.84000  0.50941  0.41380  1.0000
  H   H150      1.0  0.84203  0.50194  0.46266  1.0000
  C   C312      1.0  0.81224  0.53297  0.37238  1.0000
  C   C313      1.0  0.78619  0.54520  0.39174  1.0000
  C   C314      1.0  0.78866  0.53502  0.46092  1.0000
  C   C315      1.0  0.80172  0.52885  0.45242  1.0000
  C   C316      1.0  0.80427  0.51846  0.52010  1.0000
  C   C317      1.0  0.81699  0.51205  0.50828  1.0000
  H   H151      1.0  0.79678  0.51535  0.57811  1.0000
  H   H152      1.0  0.81851  0.50443  0.55799  1.0000
  H   H153      1.0  0.78065  0.53176  0.51742  1.0000
  C   C318      1.0  0.77204  0.54947  0.39715  1.0000
  H   H154      1.0  0.76008  0.54013  0.42560  1.0000
  C   C319      1.0  0.68843  0.17255  0.42841  1.0000
  C   C320      1.0  0.66929  0.15985  0.41376  1.0000
  H   H155      1.0  0.65979  0.15782  0.46261  1.0000
  C   C321      1.0  0.72061  0.18762  0.37233  1.0000
  C   C322      1.0  0.75890  0.21367  0.39171  1.0000
  C   C323      1.0  0.74623  0.21120  0.46089  1.0000
  C   C324      1.0  0.72701  0.19814  0.45238  1.0000
  C   C325      1.0  0.71408  0.19559  0.52007  1.0000
  C   C326      1.0  0.69494  0.18286  0.50825  1.0000
  H   H156      1.0  0.71846  0.20308  0.57808  1.0000
  H   H157      1.0  0.68580  0.18134  0.55795  1.0000
  H   H158      1.0  0.75099  0.21921  0.51740  1.0000
  C   C327      1.0  0.77731  0.22781  0.39714  1.0000
  H   H159      1.0  0.77993  0.23978  0.42559  1.0000
  C   C328      1.0  0.14908  0.49278  0.41085  1.0000
  C   C329      1.0  0.15539  0.48002  0.39489  1.0000
  H   H160      1.0  0.15381  0.47063  0.44350  1.0000
  C   C330      1.0  0.14551  0.51886  0.35701  1.0000
  C   C331      1.0  0.13211  0.54393  0.37963  1.0000
  C   C332      1.0  0.12971  0.53114  0.44803  1.0000
  C   C333      1.0  0.13642  0.51854  0.43791  1.0000
  C   C334      1.0  0.13395  0.50550  0.50485  1.0000
  C   C335      1.0  0.14027  0.49275  0.49151  1.0000
  H   H161      1.0  0.12740  0.50508  0.56344  1.0000
  H   H162      1.0  0.13822  0.48334  0.54074  1.0000
  H   H163      1.0  0.12269  0.53073  0.50510  1.0000
  C   C336      1.0  0.12361  0.55466  0.38642  1.0000
  H   H164      1.0  0.11111  0.54890  0.41557  1.0000
  C   C337      1.0  0.50706  0.65626  0.41085  1.0000
  C   C338      1.0  0.51982  0.67534  0.39490  1.0000
  H   H165      1.0  0.52921  0.68315  0.44351  1.0000
  C   C339      1.0  0.48099  0.62662  0.35700  1.0000
  C   C340      1.0  0.45592  0.58815  0.37961  1.0000
  C   C341      1.0  0.46870  0.59854  0.44801  1.0000
  C   C342      1.0  0.48131  0.61784  0.43789  1.0000
  C   C343      1.0  0.49434  0.62841  0.50484  1.0000
  C   C344      1.0  0.50710  0.64749  0.49151  1.0000
  H   H166      1.0  0.49477  0.62229  0.56342  1.0000
  H   H167      1.0  0.51650  0.65485  0.54073  1.0000
  H   H168      1.0  0.46912  0.59193  0.50508  1.0000
  C   C345      1.0  0.44519  0.56892  0.38639  1.0000
  H   H169      1.0  0.45095  0.56219  0.41553  1.0000
  C   C346      1.0  0.34358  0.85077  0.41087  1.0000
  C   C347      1.0  0.32450  0.84445  0.39492  1.0000
  H   H170      1.0  0.31669  0.84603  0.44354  1.0000
  C   C348      1.0  0.37322  0.85433  0.35701  1.0000
  C   C349      1.0  0.41169  0.86773  0.37961  1.0000
  C   C350      1.0  0.40130  0.87013  0.44802  1.0000
  C   C351      1.0  0.38200  0.86342  0.43790  1.0000
  C   C352      1.0  0.37143  0.86589  0.50485  1.0000
  C   C353      1.0  0.35235  0.85957  0.49153  1.0000
  H   H171      1.0  0.37755  0.87244  0.56343  1.0000
  H   H172      1.0  0.34499  0.86162  0.54075  1.0000
  H   H173      1.0  0.40791  0.87715  0.50508  1.0000
  C   C354      1.0  0.43092  0.87623  0.38638  1.0000
  H   H174      1.0  0.43765  0.88873  0.41551  1.0000
  C   C355      1.0  0.47956  0.16364  0.36065  1.0000
  C   C356      1.0  0.49318  0.16610  0.42441  1.0000
  N   N133      1.0  0.50550  0.16022  0.40689  1.0000
  C   C357      1.0  0.50574  0.15196  0.32893  1.0000
  C   C358      1.0  0.54412  0.14253  0.36877  1.0000
  H   H175      1.0  0.49405  0.17236  0.48440  1.0000
  N   N134      1.0  0.53150  0.14833  0.37837  1.0000
  H   H176      1.0  0.55273  0.14423  0.42122  1.0000
  C   C359      1.0  0.46779  0.17070  0.37603  1.0000
  H   H177      1.0  0.47309  0.18320  0.40468  1.0000
  C   C360      1.0  0.68396  0.52028  0.36063  1.0000
  C   C361      1.0  0.67280  0.50666  0.42439  1.0000
  N   N135      1.0  0.65460  0.49434  0.40686  1.0000
  C   C362      1.0  0.64610  0.49411  0.32892  1.0000
  C   C363      1.0  0.59829  0.45572  0.36877  1.0000
  H   H178      1.0  0.67820  0.50579  0.48437  1.0000
  N   N136      1.0  0.61671  0.46834  0.37835  1.0000
  H   H179      1.0  0.59138  0.44711  0.42121  1.0000
  C   C364      1.0  0.70279  0.53205  0.37600  1.0000
  H   H180      1.0  0.70998  0.52675  0.40474  1.0000
  C   C365      1.0  0.83622  0.31589  0.36077  1.0000
  C   C366      1.0  0.83377  0.32706  0.42452  1.0000
  N   N137      1.0  0.83964  0.34526  0.40696  1.0000
  C   C367      1.0  0.84789  0.35375  0.32899  1.0000
  C   C368      1.0  0.85731  0.40156  0.36874  1.0000
  H   H181      1.0  0.82750  0.32167  0.48452  1.0000
  N   N138      1.0  0.85152  0.38314  0.37836  1.0000
  H   H182      1.0  0.85562  0.40847  0.42117  1.0000
  C   C369      1.0  0.82916  0.29706  0.37619  1.0000
  H   H183      1.0  0.81666  0.28987  0.40486  1.0000
  C   C370      1.0  0.04730  0.55743  0.36316  1.0000
  C   C371      1.0  0.03404  0.55048  0.43274  1.0000
  N   N139      1.0  0.01557  0.54227  0.41392  1.0000
  C   C372      1.0  0.00878  0.54025  0.32964  1.0000
  C   C373      1.0  0.95841  0.51333  0.37202  1.0000
  H   H184      1.0  0.03805  0.55111  0.49775  1.0000
  N   N140      1.0  0.97716  0.52348  0.38305  1.0000
  H   H185      1.0  0.95018  0.50801  0.42734  1.0000
  C   C374      1.0  0.06589  0.56385  0.38071  1.0000
  H   H186      1.0  0.06922  0.55615  0.41941  1.0000
  C   C375      1.0  0.44241  0.48984  0.36317  1.0000
  C   C376      1.0  0.44935  0.48352  0.43277  1.0000
  N   N141      1.0  0.45756  0.47326  0.41396  1.0000
  C   C377      1.0  0.45959  0.46850  0.32968  1.0000
  C   C378      1.0  0.48650  0.44504  0.37211  1.0000
  H   H187      1.0  0.44872  0.48690  0.49777  1.0000
  N   N142      1.0  0.47635  0.45363  0.38312  1.0000
  H   H188      1.0  0.49182  0.44213  0.42745  1.0000
  C   C379      1.0  0.43599  0.50201  0.38071  1.0000
  H   H189      1.0  0.44369  0.51304  0.41941  1.0000
  C   C380      1.0  0.51001  0.95254  0.36317  1.0000
  C   C381      1.0  0.51633  0.96580  0.43277  1.0000
  N   N143      1.0  0.52659  0.98427  0.41395  1.0000
  C   C382      1.0  0.53136  0.99107  0.32967  1.0000
  C   C383      1.0  0.55481  0.04143  0.37209  1.0000
  H   H190      1.0  0.51295  0.96179  0.49777  1.0000
  N   N144      1.0  0.54622  0.02269  0.38310  1.0000
  H   H191      1.0  0.55772  0.04966  0.42742  1.0000
  C   C384      1.0  0.49784  0.93395  0.38072  1.0000
  H   H192      1.0  0.48681  0.93063  0.41939  1.0000
