data_image0
_chemical_formula_structural       C2HNC3O2HC4H2C3O2HNC2HNC3O2HC4H2C3O2HNC2H2C3O2HNOH2CHC3H2NOC3O2H2C2H2C3O2HNOH2CHC3H2NOC3O2H2C5HCNC2O2HCNC2OC7HC4NC3OHNC3O2C5HCNC2O2HCNC2OC7HC4NC3OHNC3O2C2HCHCNC2O2HCNC2O2HC4H3CH2NC3O2HNC3O2HC2HCHCNC2O2HCNC2O2HC4H3CH2NC3O2HNC3O2HC2HC2HC2HC2HC2HC2HCNC2O2HCNC2O2HCNC2O2HCNC2O2HCNC2O2HCNC2O2HC4H2C4H2C4H2C4H2C4H2C4H2NC3O2HNC3O2HNC3O2HNC3O2HNC3O2HNC3O2HC2HC2HC2HC2HC2HC2HCNC2O2HCNC2O2HCNC2O2HCNC2O2HCNC2O2HCNC2O2HC4H2C4H2C4H2C4H2C4H2C4H2NC3O2HNC3O2HNC3O2HNC3O2HNC3O2HNC3O2H
_chemical_formula_sum              "C288 H120 N48 O96"
_cell_length_a       46.589
_cell_length_b       46.589
_cell_length_c       14.8049
_cell_angle_alpha    90
_cell_angle_beta     90
_cell_angle_gamma    120

_space_group_name_H-M_alt    "P 1"
_space_group_IT_number       1

loop_
  _space_group_symop_operation_xyz
  'x, y, z'

loop_
  _atom_site_type_symbol
  _atom_site_label
  _atom_site_symmetry_multiplicity
  _atom_site_fract_x
  _atom_site_fract_y
  _atom_site_fract_z
  _atom_site_occupancy
  C   C1        1.0  0.04730  0.30115  0.33436  1.0000
  C   C2        1.0  0.08225  0.31911  0.34339  1.0000
  H   H1        1.0  0.03629  0.31520  0.32967  1.0000
  N   N1        1.0  0.11503  0.24839  0.27604  1.0000
  C   C3        1.0  0.10171  0.35414  0.34587  1.0000
  C   C4        1.0  0.11670  0.37309  0.26685  1.0000
  C   C5        1.0  0.10541  0.36122  0.18031  1.0000
  O   O1        1.0  0.12555  0.36602  0.12085  1.0000
  O   O2        1.0  0.07794  0.35538  0.15303  1.0000
  H   H2        1.0  0.06204  0.35465  0.18744  1.0000
  C   C6        1.0  0.02796  0.26560  0.33479  1.0000
  C   C7        1.0  0.09905  0.30120  0.35145  1.0000
  C   C8        1.0  0.08216  0.26638  0.34776  1.0000
  C   C9        1.0  0.04721  0.24931  0.33875  1.0000
  H   H3        1.0  0.12444  0.31389  0.35693  1.0000
  H   H4        1.0  0.03612  0.22418  0.33927  1.0000
  C   C10       1.0  0.12043  0.25471  0.43422  1.0000
  C   C11       1.0  0.10143  0.25071  0.35523  1.0000
  C   C12       1.0  0.11226  0.26163  0.51881  1.0000
  O   O3        1.0  0.13437  0.27948  0.57112  1.0000
  O   O4        1.0  0.08481  0.24418  0.55405  1.0000
  H   H5        1.0  0.06727  0.22809  0.52647  1.0000
  N   N2        1.0  0.11898  0.36649  0.42391  1.0000
  C   C13       1.0  0.04730  0.80115  0.33436  1.0000
  C   C14       1.0  0.08225  0.81911  0.34339  1.0000
  H   H6        1.0  0.03629  0.81520  0.32967  1.0000
  N   N3        1.0  0.11503  0.74839  0.27604  1.0000
  C   C15       1.0  0.10171  0.85414  0.34587  1.0000
  C   C16       1.0  0.11670  0.87309  0.26685  1.0000
  C   C17       1.0  0.10541  0.86122  0.18031  1.0000
  O   O5        1.0  0.12555  0.86603  0.12085  1.0000
  O   O6        1.0  0.07794  0.85538  0.15303  1.0000
  H   H7        1.0  0.06204  0.85465  0.18744  1.0000
  C   C18       1.0  0.02795  0.76559  0.33479  1.0000
  C   C19       1.0  0.09906  0.80120  0.35145  1.0000
  C   C20       1.0  0.08216  0.76638  0.34776  1.0000
  C   C21       1.0  0.04721  0.74931  0.33875  1.0000
  H   H8        1.0  0.12444  0.81390  0.35693  1.0000
  H   H9        1.0  0.03612  0.72418  0.33927  1.0000
  C   C22       1.0  0.12043  0.75471  0.43422  1.0000
  C   C23       1.0  0.10143  0.75071  0.35523  1.0000
  C   C24       1.0  0.11226  0.76163  0.51881  1.0000
  O   O7        1.0  0.13437  0.77948  0.57112  1.0000
  O   O8        1.0  0.08481  0.74418  0.55405  1.0000
  H   H10       1.0  0.06727  0.72808  0.52647  1.0000
  N   N4        1.0  0.11898  0.86649  0.42391  1.0000
  C   C25       1.0  0.21534  0.24940  0.33457  1.0000
  C   C26       1.0  0.19740  0.26641  0.34358  1.0000
  H   H11       1.0  0.20127  0.22434  0.33012  1.0000
  H   H12       1.0  0.22767  0.03300  0.32982  1.0000
  C   C27       1.0  0.16237  0.25090  0.34636  1.0000
  C   C28       1.0  0.14348  0.24698  0.26716  1.0000
  C   C29       1.0  0.15540  0.24739  0.18076  1.0000
  O   O9        1.0  0.15063  0.26280  0.12142  1.0000
  O   O10       1.0  0.16079  0.22546  0.15351  1.0000
  H   H13       1.0  0.16142  0.21028  0.18805  1.0000
  N   N5        1.0  0.14660  0.40149  0.27602  1.0000
  O   O11       1.0  0.22875  0.07460  0.15361  1.0000
  H   H14       1.0  0.21350  0.05880  0.18806  1.0000
  H   H15       1.0  0.22742  0.19795  0.33894  1.0000
  C   C30       1.0  0.21533  0.30112  0.35154  1.0000
  H   H16       1.0  0.20265  0.31383  0.35708  1.0000
  C   C31       1.0  0.21547  0.41757  0.35131  1.0000
  C   C32       1.0  0.19753  0.43444  0.34766  1.0000
  C   C33       1.0  0.21537  0.46939  0.33853  1.0000
  H   H17       1.0  0.20280  0.39219  0.35693  1.0000
  H   H18       1.0  0.20131  0.48045  0.33884  1.0000
  N   N6        1.0  0.14995  0.25573  0.42439  1.0000
  O   O12       1.0  0.23621  0.35774  0.56921  1.0000
  C   C34       1.0  0.14749  0.39600  0.43386  1.0000
  C   C35       1.0  0.16261  0.41515  0.35512  1.0000
  C   C36       1.0  0.16256  0.40402  0.51846  1.0000
  O   O13       1.0  0.15837  0.38184  0.57040  1.0000
  O   O14       1.0  0.17256  0.43141  0.55409  1.0000
  H   H19       1.0  0.17399  0.44900  0.52678  1.0000
  H   H20       1.0  0.23119  0.17078  0.52616  1.0000
  C   C37       1.0  0.21534  0.74940  0.33457  1.0000
  C   C38       1.0  0.19740  0.76641  0.34358  1.0000
  H   H21       1.0  0.20127  0.72433  0.33012  1.0000
  H   H22       1.0  0.22767  0.53300  0.32982  1.0000
  C   C39       1.0  0.16237  0.75091  0.34636  1.0000
  C   C40       1.0  0.14348  0.74698  0.26716  1.0000
  C   C41       1.0  0.15541  0.74740  0.18076  1.0000
  O   O15       1.0  0.15063  0.76280  0.12142  1.0000
  O   O16       1.0  0.16079  0.72546  0.15351  1.0000
  H   H23       1.0  0.16142  0.71028  0.18805  1.0000
  N   N7        1.0  0.14660  0.90149  0.27602  1.0000
  O   O17       1.0  0.22875  0.57461  0.15361  1.0000
  H   H24       1.0  0.21351  0.55880  0.18806  1.0000
  H   H25       1.0  0.22742  0.69795  0.33894  1.0000
  C   C42       1.0  0.21533  0.80112  0.35154  1.0000
  H   H26       1.0  0.20265  0.81383  0.35708  1.0000
  C   C43       1.0  0.21547  0.91757  0.35131  1.0000
  C   C44       1.0  0.19753  0.93444  0.34766  1.0000
  C   C45       1.0  0.21537  0.96939  0.33853  1.0000
  H   H27       1.0  0.20280  0.89218  0.35693  1.0000
  H   H28       1.0  0.20131  0.98045  0.33884  1.0000
  N   N8        1.0  0.14995  0.75573  0.42439  1.0000
  O   O18       1.0  0.23621  0.85774  0.56921  1.0000
  C   C46       1.0  0.14749  0.89600  0.43386  1.0000
  C   C47       1.0  0.16261  0.91515  0.35512  1.0000
  C   C48       1.0  0.16256  0.90402  0.51846  1.0000
  O   O19       1.0  0.15837  0.88184  0.57040  1.0000
  O   O20       1.0  0.17256  0.93141  0.55409  1.0000
  H   H29       1.0  0.17399  0.94900  0.52678  1.0000
  H   H30       1.0  0.23118  0.67078  0.52616  1.0000
  C   C49       1.0  0.30441  0.26371  0.33445  1.0000
  C   C50       1.0  0.26971  0.07895  0.34377  1.0000
  C   C51       1.0  0.25273  0.04401  0.33446  1.0000
  C   C52       1.0  0.26714  0.46935  0.33409  1.0000
  C   C53       1.0  0.25018  0.43440  0.34323  1.0000
  H   H31       1.0  0.29220  0.48037  0.32934  1.0000
  C   C54       1.0  0.26577  0.41498  0.34559  1.0000
  N   N9        1.0  0.26822  0.37001  0.27563  1.0000
  C   C55       1.0  0.26971  0.39990  0.26667  1.0000
  C   C56       1.0  0.26926  0.41131  0.18020  1.0000
  O   O21       1.0  0.25387  0.39124  0.12062  1.0000
  O   O22       1.0  0.29100  0.43876  0.15309  1.0000
  H   H32       1.0  0.30619  0.45459  0.18761  1.0000
  C   C57       1.0  0.25418  0.09843  0.34660  1.0000
  N   N10       1.0  0.25162  0.14323  0.27606  1.0000
  C   C58       1.0  0.25025  0.11338  0.26734  1.0000
  C   C59       1.0  0.25071  0.10188  0.18097  1.0000
  O   O23       1.0  0.26623  0.12206  0.12172  1.0000
  C   C60       1.0  0.26886  0.24752  0.33474  1.0000
  C   C61       1.0  0.25255  0.21199  0.33855  1.0000
  C   C62       1.0  0.26960  0.19409  0.34762  1.0000
  C   C63       1.0  0.30441  0.21198  0.35144  1.0000
  C   C64       1.0  0.25090  0.26560  0.33477  1.0000
  C   C65       1.0  0.25014  0.31902  0.34769  1.0000
  C   C66       1.0  0.26720  0.30113  0.33849  1.0000
  H   H33       1.0  0.29233  0.31517  0.33848  1.0000
  C   C67       1.0  0.26897  0.02469  0.33452  1.0000
  C   C68       1.0  0.30451  0.04396  0.33819  1.0000
  C   C69       1.0  0.30441  0.09575  0.35200  1.0000
  C   C70       1.0  0.25091  0.48866  0.33448  1.0000
  N   N11       1.0  0.26084  0.39758  0.42345  1.0000
  C   C71       1.0  0.26181  0.36906  0.43344  1.0000
  C   C72       1.0  0.26581  0.35395  0.35461  1.0000
  C   C73       1.0  0.25477  0.35407  0.51817  1.0000
  O   O24       1.0  0.27184  0.34366  0.55359  1.0000
  H   H34       1.0  0.28815  0.34243  0.52658  1.0000
  N   N12       1.0  0.25892  0.11572  0.42451  1.0000
  C   C74       1.0  0.25784  0.14419  0.43428  1.0000
  C   C75       1.0  0.25388  0.15915  0.35519  1.0000
  C   C76       1.0  0.26470  0.15928  0.51884  1.0000
  O   O25       1.0  0.28251  0.15502  0.57131  1.0000
  O   O26       1.0  0.24725  0.16932  0.55388  1.0000
  C   C77       1.0  0.30441  0.76371  0.33445  1.0000
  C   C78       1.0  0.26971  0.57894  0.34377  1.0000
  C   C79       1.0  0.25273  0.54401  0.33446  1.0000
  C   C80       1.0  0.26714  0.96935  0.33409  1.0000
  C   C81       1.0  0.25018  0.93440  0.34323  1.0000
  H   H35       1.0  0.29220  0.98037  0.32934  1.0000
  C   C82       1.0  0.26577  0.91498  0.34559  1.0000
  N   N13       1.0  0.26822  0.87001  0.27563  1.0000
  C   C83       1.0  0.26971  0.89991  0.26667  1.0000
  C   C84       1.0  0.26926  0.91131  0.18020  1.0000
  O   O27       1.0  0.25387  0.89124  0.12062  1.0000
  O   O28       1.0  0.29100  0.93876  0.15309  1.0000
  H   H36       1.0  0.30619  0.95459  0.18761  1.0000
  C   C85       1.0  0.25418  0.59843  0.34660  1.0000
  N   N14       1.0  0.25162  0.64323  0.27606  1.0000
  C   C86       1.0  0.25025  0.61338  0.26734  1.0000
  C   C87       1.0  0.25071  0.60188  0.18097  1.0000
  O   O29       1.0  0.26623  0.62206  0.12172  1.0000
  C   C88       1.0  0.26886  0.74752  0.33474  1.0000
  C   C89       1.0  0.25255  0.71199  0.33855  1.0000
  C   C90       1.0  0.26960  0.69410  0.34762  1.0000
  C   C91       1.0  0.30441  0.71198  0.35144  1.0000
  C   C92       1.0  0.25090  0.76559  0.33477  1.0000
  C   C93       1.0  0.25014  0.81902  0.34769  1.0000
  C   C94       1.0  0.26720  0.80113  0.33849  1.0000
  H   H37       1.0  0.29233  0.81517  0.33848  1.0000
  C   C95       1.0  0.26897  0.52469  0.33452  1.0000
  C   C96       1.0  0.30451  0.54396  0.33819  1.0000
  C   C97       1.0  0.30441  0.59575  0.35200  1.0000
  C   C98       1.0  0.25091  0.98866  0.33448  1.0000
  N   N15       1.0  0.26084  0.89758  0.42345  1.0000
  C   C99       1.0  0.26181  0.86906  0.43344  1.0000
  C   C100      1.0  0.26581  0.85395  0.35461  1.0000
  C   C101      1.0  0.25477  0.85407  0.51817  1.0000
  O   O30       1.0  0.27184  0.84366  0.55359  1.0000
  H   H38       1.0  0.28815  0.84243  0.52658  1.0000
  N   N16       1.0  0.25892  0.61572  0.42451  1.0000
  C   C102      1.0  0.25783  0.64419  0.43428  1.0000
  C   C103      1.0  0.25388  0.65915  0.35519  1.0000
  C   C104      1.0  0.26470  0.65928  0.51884  1.0000
  O   O31       1.0  0.28251  0.65502  0.57131  1.0000
  O   O32       1.0  0.24725  0.66932  0.55388  1.0000
  C   C105      1.0  0.43763  0.19412  0.34305  1.0000
  C   C106      1.0  0.47259  0.21209  0.33413  1.0000
  H   H39       1.0  0.48360  0.19804  0.32940  1.0000
  C   C107      1.0  0.32235  0.24669  0.34337  1.0000
  H   H40       1.0  0.31849  0.28878  0.33005  1.0000
  C   C108      1.0  0.35738  0.26220  0.34618  1.0000
  N   N17       1.0  0.40473  0.26470  0.27604  1.0000
  C   C109      1.0  0.37627  0.26609  0.26705  1.0000
  C   C110      1.0  0.36441  0.26553  0.18048  1.0000
  O   O33       1.0  0.36872  0.24970  0.12153  1.0000
  O   O34       1.0  0.35853  0.28715  0.15330  1.0000
  H   H41       1.0  0.35804  0.30246  0.18763  1.0000
  C   C111      1.0  0.41820  0.15909  0.34539  1.0000
  N   N18       1.0  0.37325  0.11163  0.27552  1.0000
  C   C112      1.0  0.40315  0.14004  0.26651  1.0000
  C   C113      1.0  0.41459  0.15186  0.18005  1.0000
  O   O35       1.0  0.39455  0.14712  0.12035  1.0000
  O   O36       1.0  0.44206  0.15757  0.15311  1.0000
  H   H42       1.0  0.45788  0.15825  0.18776  1.0000
  C   C114      1.0  0.49193  0.24764  0.33475  1.0000
  C   C115      1.0  0.47267  0.26392  0.33882  1.0000
  C   C116      1.0  0.43770  0.24683  0.34748  1.0000
  C   C117      1.0  0.42081  0.21202  0.35101  1.0000
  H   H43       1.0  0.48375  0.28905  0.33950  1.0000
  H   H44       1.0  0.39542  0.19931  0.35640  1.0000
  H   H45       1.0  0.31709  0.19926  0.35702  1.0000
  C   C118      1.0  0.32235  0.07888  0.34791  1.0000
  H   H46       1.0  0.31857  0.03290  0.33816  1.0000
  H   H47       1.0  0.31709  0.12114  0.35775  1.0000
  N   N19       1.0  0.36982  0.25742  0.42422  1.0000
  C   C119      1.0  0.39938  0.25850  0.43409  1.0000
  C   C120      1.0  0.41843  0.26249  0.35521  1.0000
  C   C121      1.0  0.40751  0.25153  0.51865  1.0000
  O   O37       1.0  0.38539  0.23362  0.57085  1.0000
  O   O38       1.0  0.43496  0.26894  0.55397  1.0000
  H   H48       1.0  0.45251  0.28506  0.52648  1.0000
  N   N20       1.0  0.40086  0.14677  0.42343  1.0000
  C   C122      1.0  0.37234  0.11729  0.43361  1.0000
  C   C123      1.0  0.35731  0.09821  0.35475  1.0000
  C   C124      1.0  0.35735  0.10938  0.51836  1.0000
  O   O39       1.0  0.36115  0.13163  0.56947  1.0000
  O   O40       1.0  0.34691  0.08189  0.55378  1.0000
  H   H49       1.0  0.34561  0.06432  0.52673  1.0000
  C   C125      1.0  0.43763  0.69412  0.34305  1.0000
  C   C126      1.0  0.47259  0.71209  0.33413  1.0000
  H   H50       1.0  0.48360  0.69804  0.32940  1.0000
  C   C127      1.0  0.32235  0.74669  0.34337  1.0000
  H   H51       1.0  0.31849  0.78878  0.33005  1.0000
  C   C128      1.0  0.35738  0.76220  0.34618  1.0000
  N   N21       1.0  0.40473  0.76470  0.27604  1.0000
  C   C129      1.0  0.37627  0.76609  0.26705  1.0000
  C   C130      1.0  0.36441  0.76553  0.18048  1.0000
  O   O41       1.0  0.36872  0.74969  0.12153  1.0000
  O   O42       1.0  0.35853  0.78715  0.15330  1.0000
  H   H52       1.0  0.35804  0.80247  0.18763  1.0000
  C   C131      1.0  0.41820  0.65909  0.34539  1.0000
  N   N22       1.0  0.37325  0.61163  0.27552  1.0000
  C   C132      1.0  0.40315  0.64004  0.26651  1.0000
  C   C133      1.0  0.41459  0.65186  0.18005  1.0000
  O   O43       1.0  0.39455  0.64712  0.12035  1.0000
  O   O44       1.0  0.44207  0.65757  0.15311  1.0000
  H   H53       1.0  0.45788  0.65825  0.18776  1.0000
  C   C134      1.0  0.49193  0.74764  0.33475  1.0000
  C   C135      1.0  0.47267  0.76392  0.33882  1.0000
  C   C136      1.0  0.43770  0.74683  0.34748  1.0000
  C   C137      1.0  0.42081  0.71202  0.35101  1.0000
  H   H54       1.0  0.48375  0.78905  0.33950  1.0000
  H   H55       1.0  0.39542  0.69931  0.35640  1.0000
  H   H56       1.0  0.31708  0.69926  0.35702  1.0000
  C   C138      1.0  0.32235  0.57888  0.34791  1.0000
  H   H57       1.0  0.31857  0.53290  0.33816  1.0000
  H   H58       1.0  0.31709  0.62114  0.35775  1.0000
  N   N23       1.0  0.36982  0.75742  0.42422  1.0000
  C   C139      1.0  0.39938  0.75850  0.43409  1.0000
  C   C140      1.0  0.41843  0.76249  0.35521  1.0000
  C   C141      1.0  0.40751  0.75153  0.51865  1.0000
  O   O45       1.0  0.38539  0.73362  0.57085  1.0000
  O   O46       1.0  0.43496  0.76895  0.55397  1.0000
  H   H59       1.0  0.45251  0.78506  0.52648  1.0000
  N   N24       1.0  0.40086  0.64677  0.42343  1.0000
  C   C142      1.0  0.37234  0.61729  0.43361  1.0000
  C   C143      1.0  0.35732  0.59821  0.35475  1.0000
  C   C144      1.0  0.35735  0.60938  0.51836  1.0000
  O   O47       1.0  0.36115  0.63163  0.56947  1.0000
  O   O48       1.0  0.34691  0.58189  0.55378  1.0000
  H   H60       1.0  0.34561  0.56433  0.52673  1.0000
  C   C145      1.0  0.93763  0.19412  0.34305  1.0000
  C   C146      1.0  0.97259  0.21209  0.33413  1.0000
  H   H61       1.0  0.98360  0.19804  0.32940  1.0000
  C   C147      1.0  0.54730  0.30115  0.33436  1.0000
  C   C148      1.0  0.58225  0.31911  0.34339  1.0000
  H   H62       1.0  0.53629  0.31520  0.32967  1.0000
  C   C149      1.0  0.82235  0.24669  0.34337  1.0000
  C   C150      1.0  0.80441  0.26371  0.33445  1.0000
  H   H63       1.0  0.81849  0.28878  0.33005  1.0000
  C   C151      1.0  0.71534  0.24940  0.33457  1.0000
  C   C152      1.0  0.69740  0.26641  0.34358  1.0000
  H   H64       1.0  0.70127  0.22434  0.33012  1.0000
  C   C153      1.0  0.76971  0.07895  0.34377  1.0000
  C   C154      1.0  0.75273  0.04401  0.33446  1.0000
  H   H65       1.0  0.72767  0.03300  0.32982  1.0000
  C   C155      1.0  0.76714  0.46935  0.33409  1.0000
  C   C156      1.0  0.75018  0.43440  0.34323  1.0000
  H   H66       1.0  0.79220  0.48037  0.32934  1.0000
  C   C157      1.0  0.66237  0.25090  0.34636  1.0000
  N   N25       1.0  0.61503  0.24839  0.27604  1.0000
  C   C158      1.0  0.64348  0.24698  0.26716  1.0000
  C   C159      1.0  0.65540  0.24739  0.18076  1.0000
  O   O49       1.0  0.65063  0.26280  0.12142  1.0000
  O   O50       1.0  0.66079  0.22546  0.15351  1.0000
  H   H67       1.0  0.66142  0.21028  0.18805  1.0000
  C   C160      1.0  0.76577  0.41498  0.34559  1.0000
  N   N26       1.0  0.76822  0.37001  0.27563  1.0000
  C   C161      1.0  0.76971  0.39990  0.26667  1.0000
  C   C162      1.0  0.76925  0.41131  0.18020  1.0000
  O   O51       1.0  0.75387  0.39124  0.12062  1.0000
  O   O52       1.0  0.79100  0.43876  0.15309  1.0000
  H   H68       1.0  0.80619  0.45459  0.18761  1.0000
  C   C163      1.0  0.60171  0.35414  0.34587  1.0000
  N   N27       1.0  0.64660  0.40149  0.27602  1.0000
  C   C164      1.0  0.61670  0.37309  0.26685  1.0000
  C   C165      1.0  0.60541  0.36122  0.18031  1.0000
  O   O53       1.0  0.62555  0.36602  0.12085  1.0000
  O   O54       1.0  0.57793  0.35538  0.15303  1.0000
  H   H69       1.0  0.56204  0.35465  0.18744  1.0000
  C   C166      1.0  0.85738  0.26220  0.34618  1.0000
  N   N28       1.0  0.90473  0.26470  0.27604  1.0000
  C   C167      1.0  0.87627  0.26609  0.26705  1.0000
  C   C168      1.0  0.86441  0.26553  0.18048  1.0000
  O   O55       1.0  0.86872  0.24970  0.12153  1.0000
  O   O56       1.0  0.85853  0.28715  0.15330  1.0000
  H   H70       1.0  0.85804  0.30246  0.18763  1.0000
  C   C169      1.0  0.75418  0.09843  0.34660  1.0000
  N   N29       1.0  0.75162  0.14323  0.27606  1.0000
  C   C170      1.0  0.75025  0.11338  0.26734  1.0000
  C   C171      1.0  0.75071  0.10188  0.18097  1.0000
  O   O57       1.0  0.76623  0.12206  0.12172  1.0000
  O   O58       1.0  0.72875  0.07460  0.15361  1.0000
  H   H71       1.0  0.71350  0.05880  0.18806  1.0000
  C   C172      1.0  0.91820  0.15909  0.34539  1.0000
  N   N30       1.0  0.87325  0.11163  0.27552  1.0000
  C   C173      1.0  0.90315  0.14004  0.26651  1.0000
  C   C174      1.0  0.91459  0.15186  0.18005  1.0000
  O   O59       1.0  0.89455  0.14712  0.12035  1.0000
  O   O60       1.0  0.94207  0.15757  0.15311  1.0000
  H   H72       1.0  0.95789  0.15825  0.18776  1.0000
  C   C175      1.0  0.99193  0.24764  0.33475  1.0000
  C   C176      1.0  0.97267  0.26392  0.33882  1.0000
  C   C177      1.0  0.93770  0.24683  0.34748  1.0000
  C   C178      1.0  0.92081  0.21202  0.35101  1.0000
  H   H73       1.0  0.98375  0.28905  0.33950  1.0000
  H   H74       1.0  0.89542  0.19931  0.35640  1.0000
  C   C179      1.0  0.52795  0.26560  0.33479  1.0000
  C   C180      1.0  0.59905  0.30120  0.35145  1.0000
  C   C181      1.0  0.58216  0.26638  0.34776  1.0000
  C   C182      1.0  0.54721  0.24931  0.33875  1.0000
  H   H75       1.0  0.62444  0.31389  0.35693  1.0000
  H   H76       1.0  0.53612  0.22418  0.33927  1.0000
  C   C183      1.0  0.76886  0.24752  0.33474  1.0000
  C   C184      1.0  0.75255  0.21199  0.33855  1.0000
  C   C185      1.0  0.76960  0.19409  0.34762  1.0000
  C   C186      1.0  0.80441  0.21198  0.35144  1.0000
  H   H77       1.0  0.72742  0.19795  0.33894  1.0000
  H   H78       1.0  0.81709  0.19926  0.35702  1.0000
  C   C187      1.0  0.75090  0.26560  0.33477  1.0000
  C   C188      1.0  0.71533  0.30112  0.35154  1.0000
  C   C189      1.0  0.75014  0.31902  0.34769  1.0000
  C   C190      1.0  0.76720  0.30113  0.33849  1.0000
  H   H79       1.0  0.70265  0.31383  0.35708  1.0000
  H   H80       1.0  0.79233  0.31517  0.33848  1.0000
  C   C191      1.0  0.76897  0.02469  0.33452  1.0000
  C   C192      1.0  0.80451  0.04396  0.33819  1.0000
  C   C193      1.0  0.82235  0.07888  0.34791  1.0000
  C   C194      1.0  0.80441  0.09575  0.35200  1.0000
  H   H81       1.0  0.81858  0.03290  0.33816  1.0000
  H   H82       1.0  0.81709  0.12114  0.35775  1.0000
  C   C195      1.0  0.75091  0.48866  0.33448  1.0000
  C   C196      1.0  0.71547  0.41757  0.35131  1.0000
  C   C197      1.0  0.69753  0.43444  0.34766  1.0000
  C   C198      1.0  0.71537  0.46939  0.33853  1.0000
  H   H83       1.0  0.70280  0.39219  0.35693  1.0000
  H   H84       1.0  0.70131  0.48045  0.33884  1.0000
  N   N31       1.0  0.64995  0.25573  0.42439  1.0000
  C   C199      1.0  0.62043  0.25471  0.43422  1.0000
  C   C200      1.0  0.60143  0.25071  0.35523  1.0000
  C   C201      1.0  0.61226  0.26163  0.51881  1.0000
  O   O61       1.0  0.63437  0.27948  0.57112  1.0000
  O   O62       1.0  0.58481  0.24418  0.55405  1.0000
  H   H85       1.0  0.56727  0.22809  0.52647  1.0000
  N   N32       1.0  0.76084  0.39758  0.42345  1.0000
  C   C202      1.0  0.76181  0.36906  0.43344  1.0000
  C   C203      1.0  0.76581  0.35395  0.35461  1.0000
  C   C204      1.0  0.75477  0.35407  0.51817  1.0000
  O   O63       1.0  0.73621  0.35774  0.56921  1.0000
  O   O64       1.0  0.77184  0.34366  0.55359  1.0000
  H   H86       1.0  0.78815  0.34243  0.52658  1.0000
  N   N33       1.0  0.61898  0.36649  0.42391  1.0000
  C   C205      1.0  0.64749  0.39600  0.43386  1.0000
  C   C206      1.0  0.66261  0.41515  0.35512  1.0000
  C   C207      1.0  0.66256  0.40402  0.51846  1.0000
  O   O65       1.0  0.65837  0.38184  0.57040  1.0000
  O   O66       1.0  0.67256  0.43141  0.55409  1.0000
  H   H87       1.0  0.67399  0.44900  0.52678  1.0000
  N   N34       1.0  0.86982  0.25742  0.42422  1.0000
  C   C208      1.0  0.89938  0.25850  0.43409  1.0000
  C   C209      1.0  0.91843  0.26249  0.35521  1.0000
  C   C210      1.0  0.90751  0.25153  0.51865  1.0000
  O   O67       1.0  0.88539  0.23362  0.57085  1.0000
  O   O68       1.0  0.93495  0.26894  0.55397  1.0000
  H   H88       1.0  0.95251  0.28506  0.52648  1.0000
  N   N35       1.0  0.75892  0.11572  0.42451  1.0000
  C   C211      1.0  0.75783  0.14419  0.43428  1.0000
  C   C212      1.0  0.75387  0.15915  0.35519  1.0000
  C   C213      1.0  0.76470  0.15928  0.51884  1.0000
  O   O69       1.0  0.78251  0.15502  0.57131  1.0000
  O   O70       1.0  0.74725  0.16932  0.55388  1.0000
  H   H89       1.0  0.73118  0.17078  0.52616  1.0000
  N   N36       1.0  0.90086  0.14677  0.42343  1.0000
  C   C214      1.0  0.87234  0.11729  0.43361  1.0000
  C   C215      1.0  0.85732  0.09821  0.35475  1.0000
  C   C216      1.0  0.85735  0.10938  0.51836  1.0000
  O   O71       1.0  0.86115  0.13163  0.56947  1.0000
  O   O72       1.0  0.84691  0.08189  0.55378  1.0000
  H   H90       1.0  0.84561  0.06432  0.52673  1.0000
  C   C217      1.0  0.93763  0.69412  0.34305  1.0000
  C   C218      1.0  0.97259  0.71209  0.33413  1.0000
  H   H91       1.0  0.98360  0.69804  0.32940  1.0000
  C   C219      1.0  0.54730  0.80115  0.33436  1.0000
  C   C220      1.0  0.58225  0.81911  0.34339  1.0000
  H   H92       1.0  0.53629  0.81520  0.32967  1.0000
  C   C221      1.0  0.82235  0.74669  0.34337  1.0000
  C   C222      1.0  0.80441  0.76371  0.33445  1.0000
  H   H93       1.0  0.81849  0.78878  0.33005  1.0000
  C   C223      1.0  0.71535  0.74940  0.33457  1.0000
  C   C224      1.0  0.69740  0.76641  0.34358  1.0000
  H   H94       1.0  0.70127  0.72433  0.33012  1.0000
  C   C225      1.0  0.76971  0.57894  0.34377  1.0000
  C   C226      1.0  0.75273  0.54401  0.33446  1.0000
  H   H95       1.0  0.72767  0.53300  0.32982  1.0000
  C   C227      1.0  0.76714  0.96935  0.33409  1.0000
  C   C228      1.0  0.75018  0.93440  0.34323  1.0000
  H   H96       1.0  0.79220  0.98037  0.32934  1.0000
  C   C229      1.0  0.66238  0.75091  0.34636  1.0000
  N   N37       1.0  0.61503  0.74839  0.27604  1.0000
  C   C230      1.0  0.64348  0.74698  0.26716  1.0000
  C   C231      1.0  0.65540  0.74740  0.18076  1.0000
  O   O73       1.0  0.65063  0.76280  0.12142  1.0000
  O   O74       1.0  0.66079  0.72546  0.15351  1.0000
  H   H97       1.0  0.66142  0.71028  0.18805  1.0000
  C   C232      1.0  0.76577  0.91498  0.34559  1.0000
  N   N38       1.0  0.76822  0.87001  0.27563  1.0000
  C   C233      1.0  0.76972  0.89991  0.26667  1.0000
  C   C234      1.0  0.76926  0.91131  0.18020  1.0000
  O   O75       1.0  0.75387  0.89124  0.12062  1.0000
  O   O76       1.0  0.79100  0.93876  0.15309  1.0000
  H   H98       1.0  0.80619  0.95459  0.18761  1.0000
  C   C235      1.0  0.60171  0.85414  0.34587  1.0000
  N   N39       1.0  0.64660  0.90149  0.27602  1.0000
  C   C236      1.0  0.61670  0.87309  0.26685  1.0000
  C   C237      1.0  0.60541  0.86122  0.18031  1.0000
  O   O77       1.0  0.62555  0.86603  0.12085  1.0000
  O   O78       1.0  0.57793  0.85538  0.15303  1.0000
  H   H99       1.0  0.56204  0.85465  0.18744  1.0000
  C   C238      1.0  0.85738  0.76220  0.34618  1.0000
  N   N40       1.0  0.90473  0.76470  0.27604  1.0000
  C   C239      1.0  0.87627  0.76609  0.26705  1.0000
  C   C240      1.0  0.86440  0.76553  0.18048  1.0000
  O   O79       1.0  0.86872  0.74969  0.12153  1.0000
  O   O80       1.0  0.85853  0.78715  0.15330  1.0000
  H   H100      1.0  0.85804  0.80247  0.18763  1.0000
  C   C241      1.0  0.75418  0.59843  0.34660  1.0000
  N   N41       1.0  0.75162  0.64323  0.27606  1.0000
  C   C242      1.0  0.75025  0.61338  0.26734  1.0000
  C   C243      1.0  0.75071  0.60188  0.18097  1.0000
  O   O81       1.0  0.76623  0.62206  0.12172  1.0000
  O   O82       1.0  0.72875  0.57461  0.15361  1.0000
  H   H101      1.0  0.71350  0.55880  0.18806  1.0000
  C   C244      1.0  0.91820  0.65909  0.34539  1.0000
  N   N42       1.0  0.87325  0.61163  0.27552  1.0000
  C   C245      1.0  0.90315  0.64004  0.26651  1.0000
  C   C246      1.0  0.91459  0.65186  0.18005  1.0000
  O   O83       1.0  0.89455  0.64712  0.12035  1.0000
  O   O84       1.0  0.94207  0.65757  0.15311  1.0000
  H   H102      1.0  0.95788  0.65825  0.18776  1.0000
  C   C247      1.0  0.99193  0.74764  0.33475  1.0000
  C   C248      1.0  0.97267  0.76392  0.33882  1.0000
  C   C249      1.0  0.93770  0.74683  0.34748  1.0000
  C   C250      1.0  0.92081  0.71202  0.35101  1.0000
  H   H103      1.0  0.98375  0.78905  0.33950  1.0000
  H   H104      1.0  0.89542  0.69931  0.35640  1.0000
  C   C251      1.0  0.52795  0.76559  0.33479  1.0000
  C   C252      1.0  0.59906  0.80120  0.35145  1.0000
  C   C253      1.0  0.58216  0.76638  0.34776  1.0000
  C   C254      1.0  0.54721  0.74931  0.33875  1.0000
  H   H105      1.0  0.62445  0.81390  0.35693  1.0000
  H   H106      1.0  0.53612  0.72418  0.33927  1.0000
  C   C255      1.0  0.76886  0.74752  0.33474  1.0000
  C   C256      1.0  0.75255  0.71199  0.33855  1.0000
  C   C257      1.0  0.76960  0.69410  0.34762  1.0000
  C   C258      1.0  0.80441  0.71198  0.35144  1.0000
  H   H107      1.0  0.72742  0.69795  0.33894  1.0000
  H   H108      1.0  0.81708  0.69926  0.35702  1.0000
  C   C259      1.0  0.75090  0.76559  0.33477  1.0000
  C   C260      1.0  0.71533  0.80112  0.35154  1.0000
  C   C261      1.0  0.75014  0.81902  0.34769  1.0000
  C   C262      1.0  0.76720  0.80113  0.33849  1.0000
  H   H109      1.0  0.70265  0.81383  0.35708  1.0000
  H   H110      1.0  0.79233  0.81517  0.33848  1.0000
  C   C263      1.0  0.76896  0.52469  0.33452  1.0000
  C   C264      1.0  0.80451  0.54396  0.33819  1.0000
  C   C265      1.0  0.82235  0.57888  0.34791  1.0000
  C   C266      1.0  0.80441  0.59575  0.35200  1.0000
  H   H111      1.0  0.81857  0.53290  0.33816  1.0000
  H   H112      1.0  0.81709  0.62114  0.35775  1.0000
  C   C267      1.0  0.75091  0.98866  0.33448  1.0000
  C   C268      1.0  0.71547  0.91757  0.35131  1.0000
  C   C269      1.0  0.69753  0.93444  0.34766  1.0000
  C   C270      1.0  0.71537  0.96939  0.33853  1.0000
  H   H113      1.0  0.70280  0.89218  0.35693  1.0000
  H   H114      1.0  0.70131  0.98045  0.33884  1.0000
  N   N43       1.0  0.64995  0.75573  0.42439  1.0000
  C   C271      1.0  0.62043  0.75471  0.43422  1.0000
  C   C272      1.0  0.60143  0.75071  0.35523  1.0000
  C   C273      1.0  0.61226  0.76163  0.51881  1.0000
  O   O85       1.0  0.63437  0.77948  0.57112  1.0000
  O   O86       1.0  0.58481  0.74418  0.55405  1.0000
  H   H115      1.0  0.56727  0.72808  0.52647  1.0000
  N   N44       1.0  0.76084  0.89758  0.42345  1.0000
  C   C274      1.0  0.76181  0.86906  0.43344  1.0000
  C   C275      1.0  0.76581  0.85395  0.35461  1.0000
  C   C276      1.0  0.75477  0.85407  0.51817  1.0000
  O   O87       1.0  0.73621  0.85774  0.56921  1.0000
  O   O88       1.0  0.77184  0.84366  0.55359  1.0000
  H   H116      1.0  0.78815  0.84243  0.52658  1.0000
  N   N45       1.0  0.61898  0.86649  0.42391  1.0000
  C   C277      1.0  0.64749  0.89600  0.43386  1.0000
  C   C278      1.0  0.66261  0.91515  0.35512  1.0000
  C   C279      1.0  0.66256  0.90402  0.51846  1.0000
  O   O89       1.0  0.65836  0.88184  0.57040  1.0000
  O   O90       1.0  0.67256  0.93141  0.55409  1.0000
  H   H117      1.0  0.67399  0.94900  0.52678  1.0000
  N   N46       1.0  0.86982  0.75742  0.42422  1.0000
  C   C280      1.0  0.89938  0.75850  0.43409  1.0000
  C   C281      1.0  0.91844  0.76249  0.35521  1.0000
  C   C282      1.0  0.90751  0.75153  0.51865  1.0000
  O   O91       1.0  0.88539  0.73362  0.57085  1.0000
  O   O92       1.0  0.93496  0.76895  0.55397  1.0000
  H   H118      1.0  0.95251  0.78506  0.52648  1.0000
  N   N47       1.0  0.75892  0.61572  0.42451  1.0000
  C   C283      1.0  0.75783  0.64419  0.43428  1.0000
  C   C284      1.0  0.75388  0.65915  0.35519  1.0000
  C   C285      1.0  0.76470  0.65928  0.51884  1.0000
  O   O93       1.0  0.78251  0.65502  0.57131  1.0000
  O   O94       1.0  0.74725  0.66932  0.55388  1.0000
  H   H119      1.0  0.73118  0.67078  0.52616  1.0000
  N   N48       1.0  0.90086  0.64677  0.42343  1.0000
  C   C286      1.0  0.87234  0.61729  0.43361  1.0000
  C   C287      1.0  0.85732  0.59821  0.35475  1.0000
  C   C288      1.0  0.85735  0.60938  0.51836  1.0000
  O   O95       1.0  0.86115  0.63163  0.56947  1.0000
  O   O96       1.0  0.84691  0.58189  0.55378  1.0000
  H   H120      1.0  0.84561  0.56433  0.52673  1.0000
