data_image0
_chemical_formula_structural       C7H2N2O4CHC2H2C3H2CHC2H2C3H2CHC2H2C3H2CHC7H2N2O4CHC7H2N2O4CHC7H2N2O4CHC7H2N2O4CHC2H2C3H2CHC2H2C3H2CHC7H2N2O4CHC7H2N2O4CHC2H2C3H2CHC2H2C3H2CHC7H2N2O4CHC7H2N2O4CHC2H2C3H2CHC2H2C3H2CHC7H2N2O4CHC7H2N2O4CHC2H2C3H2CHC2H2C3H2CHC2H2C3H2CHC7H2N2O4CHC6H3N3C6H3N3C6H3N3C6H3N3C6H3N3C6H3N3C6H3N3C6H3N3C6H3N3C6H3N3C6H3N3C6H3N3C6H3N3C6H3N3C6H3N3C6H3N3C2H2C3H2CHC7H2N2O4CHC7H2N2O4CHC7H2N2O4CHC2H2C3H2CHC2H2C3H2CHC2H2C3H2CHC2H2C3H2CHC7H2N2O4CHC7H2N2O4CHC2H2C3H2CHC2H2C3H2CHC7H2N2O4CHC7H2N2O4CHC2H2C3H2CHC2H2C3H2CHC7H2N2O4CHC7H2N2O4CHC2H2C3H2CHC2H2C3H2CHC7H2N2O4CHC7H2N2O4CHC7H2N2O4CHC2H2C3H2CH
_chemical_formula_sum              "C432 H240 N96 O96"
_cell_length_a       109.212
_cell_length_b       56.3066
_cell_length_c       14.976
_cell_angle_alpha    90
_cell_angle_beta     90
_cell_angle_gamma    90

_space_group_name_H-M_alt    "P 1"
_space_group_IT_number       1

loop_
  _space_group_symop_operation_xyz
  'x, y, z'

loop_
  _atom_site_type_symbol
  _atom_site_label
  _atom_site_symmetry_multiplicity
  _atom_site_fract_x
  _atom_site_fract_y
  _atom_site_fract_z
  _atom_site_occupancy
  C   C1        1.0  0.52202  0.55032  0.31615  1.0000
  C   C2        1.0  0.51667  0.54175  0.23604  1.0000
  C   C3        1.0  0.50830  0.52257  0.24035  1.0000
  C   C4        1.0  0.50521  0.51167  0.32238  1.0000
  C   C5        1.0  0.49696  0.49205  0.32528  1.0000
  C   C6        1.0  0.49919  0.47082  0.27657  1.0000
  C   C7        1.0  0.49070  0.45186  0.28207  1.0000
  H   H1        1.0  0.49246  0.43669  0.24659  1.0000
  H   H2        1.0  0.50437  0.51661  0.18246  1.0000
  N   N1        1.0  0.51005  0.46852  0.22549  1.0000
  N   N2        1.0  0.51973  0.55252  0.15349  1.0000
  O   O1        1.0  0.50773  0.46491  0.14442  1.0000
  O   O2        1.0  0.52455  0.53786  0.10093  1.0000
  O   O3        1.0  0.51667  0.45188  0.25377  1.0000
  O   O4        1.0  0.51045  0.56131  0.11642  1.0000
  C   C8        1.0  0.53018  0.56900  0.31546  1.0000
  H   H3        1.0  0.53885  0.56599  0.29888  1.0000
  C   C9        1.0  0.99108  0.02073  0.26855  1.0000
  C   C10       1.0  0.98277  0.03980  0.27167  1.0000
  H   H4        1.0  0.99306  0.01323  0.20799  1.0000
  H   H5        1.0  0.97903  0.04581  0.21315  1.0000
  C   C11       1.0  0.02158  0.95337  0.33459  1.0000
  C   C12       1.0  0.02368  0.97464  0.28700  1.0000
  C   C13       1.0  0.01532  0.99360  0.29157  1.0000
  H   H6        1.0  0.03130  0.97648  0.24768  1.0000
  H   H7        1.0  0.01720  0.00874  0.25628  1.0000
  C   C14       1.0  0.02985  0.93464  0.32824  1.0000
  H   H8        1.0  0.03858  0.93796  0.31434  1.0000
  C   C15       1.0  0.37774  0.31871  0.27672  1.0000
  C   C16       1.0  0.36608  0.30832  0.28474  1.0000
  H   H9        1.0  0.38184  0.31906  0.21528  1.0000
  H   H10       1.0  0.36203  0.30139  0.22879  1.0000
  C   C17       1.0  0.41971  0.35853  0.32945  1.0000
  C   C18       1.0  0.40968  0.36712  0.27925  1.0000
  C   C19       1.0  0.39803  0.35666  0.28666  1.0000
  H   H11       1.0  0.41076  0.38117  0.23653  1.0000
  H   H12       1.0  0.39099  0.36362  0.24987  1.0000
  C   C20       1.0  0.43114  0.36935  0.32188  1.0000
  H   H13       1.0  0.43165  0.38582  0.29829  1.0000
  C   C21       1.0  0.62415  0.68349  0.27236  1.0000
  C   C22       1.0  0.63585  0.69366  0.28132  1.0000
  H   H14       1.0  0.62009  0.68340  0.21074  1.0000
  H   H15       1.0  0.63997  0.70069  0.22583  1.0000
  C   C23       1.0  0.58191  0.64441  0.32186  1.0000
  C   C24       1.0  0.59192  0.63577  0.27160  1.0000
  C   C25       1.0  0.60362  0.64595  0.27984  1.0000
  H   H16       1.0  0.59079  0.62186  0.22830  1.0000
  H   H17       1.0  0.61065  0.63895  0.24299  1.0000
  C   C26       1.0  0.57044  0.63378  0.31381  1.0000
  H   H18       1.0  0.56988  0.61735  0.28980  1.0000
  C   C27       1.0  0.14136  0.80666  0.30109  1.0000
  C   C28       1.0  0.13538  0.81592  0.22447  1.0000
  C   C29       1.0  0.12367  0.82647  0.23385  1.0000
  C   C30       1.0  0.11768  0.82765  0.31741  1.0000
  C   C31       1.0  0.10565  0.83738  0.32466  1.0000
  C   C32       1.0  0.09566  0.82838  0.27410  1.0000
  C   C33       1.0  0.08397  0.83905  0.28258  1.0000
  H   H19       1.0  0.07690  0.83241  0.24523  1.0000
  H   H20       1.0  0.11946  0.83325  0.17835  1.0000
  N   N3        1.0  0.09740  0.80845  0.21771  1.0000
  N   N4        1.0  0.14118  0.81457  0.13996  1.0000
  O   O5        1.0  0.09492  0.81327  0.13778  1.0000
  O   O6        1.0  0.13492  0.80270  0.08548  1.0000
  O   O7        1.0  0.09094  0.79114  0.24190  1.0000
  O   O8        1.0  0.14300  0.83488  0.10775  1.0000
  C   C34       1.0  0.15241  0.79478  0.29382  1.0000
  H   H21       1.0  0.15296  0.78119  0.25151  1.0000
  C   C35       1.0  0.85997  0.19497  0.30423  1.0000
  C   C36       1.0  0.86606  0.18558  0.22826  1.0000
  C   C37       1.0  0.87780  0.17526  0.23860  1.0000
  C   C38       1.0  0.88374  0.17445  0.32244  1.0000
  C   C39       1.0  0.89581  0.16501  0.33058  1.0000
  C   C40       1.0  0.90578  0.17407  0.27995  1.0000
  C   C41       1.0  0.91753  0.16368  0.28927  1.0000
  H   H22       1.0  0.92458  0.17035  0.25176  1.0000
  H   H23       1.0  0.88209  0.16841  0.18355  1.0000
  N   N5        1.0  0.90397  0.19378  0.22260  1.0000
  N   N6        1.0  0.86032  0.18660  0.14344  1.0000
  O   O9        1.0  0.90652  0.18875  0.14297  1.0000
  O   O10       1.0  0.86658  0.19842  0.08878  1.0000
  O   O11       1.0  0.91032  0.21131  0.24617  1.0000
  O   O12       1.0  0.85862  0.16618  0.11196  1.0000
  C   C42       1.0  0.84890  0.20674  0.29591  1.0000
  H   H24       1.0  0.84836  0.22017  0.25288  1.0000
  C   C43       1.0  0.52879  0.19358  0.28377  1.0000
  C   C44       1.0  0.52621  0.20794  0.20811  1.0000
  C   C45       1.0  0.52053  0.23031  0.22045  1.0000
  C   C46       1.0  0.51717  0.23849  0.30618  1.0000
  C   C47       1.0  0.51070  0.26025  0.31691  1.0000
  C   C48       1.0  0.49920  0.26428  0.27516  1.0000
  C   C49       1.0  0.49319  0.28631  0.28788  1.0000
  H   H25       1.0  0.48495  0.28896  0.25683  1.0000
  H   H26       1.0  0.51867  0.24055  0.16560  1.0000
  N   N7        1.0  0.49372  0.24608  0.22345  1.0000
  N   N8        1.0  0.52923  0.19968  0.12144  1.0000
  O   O13       1.0  0.49201  0.25261  0.14418  1.0000
  O   O14       1.0  0.51987  0.19779  0.07313  1.0000
  O   O15       1.0  0.48366  0.23960  0.25601  1.0000
  O   O16       1.0  0.53671  0.21330  0.08352  1.0000
  C   C50       1.0  0.53305  0.17056  0.27402  1.0000
  H   H27       1.0  0.52902  0.16024  0.22868  1.0000
  C   C51       1.0  0.47211  0.80881  0.28728  1.0000
  C   C52       1.0  0.47484  0.79429  0.21229  1.0000
  C   C53       1.0  0.48069  0.77214  0.22569  1.0000
  C   C54       1.0  0.48411  0.76433  0.31181  1.0000
  C   C55       1.0  0.49076  0.74282  0.32332  1.0000
  C   C56       1.0  0.50228  0.73906  0.28161  1.0000
  C   C57       1.0  0.50840  0.71713  0.29402  1.0000
  H   H28       1.0  0.51665  0.71466  0.26281  1.0000
  H   H29       1.0  0.48267  0.76181  0.17129  1.0000
  N   N9        1.0  0.50766  0.75740  0.23003  1.0000
  N   N10       1.0  0.47180  0.80219  0.12517  1.0000
  O   O17       1.0  0.50940  0.75096  0.15069  1.0000
  O   O18       1.0  0.48118  0.80424  0.07707  1.0000
  O   O19       1.0  0.51769  0.76405  0.26263  1.0000
  O   O20       1.0  0.46445  0.78823  0.08760  1.0000
  C   C58       1.0  0.46775  0.83172  0.27616  1.0000
  H   H30       1.0  0.47174  0.84185  0.23001  1.0000
  C   C59       1.0  0.98158  0.72425  0.28898  1.0000
  C   C60       1.0  0.97589  0.70207  0.30003  1.0000
  H   H31       1.0  0.98407  0.72949  0.22607  1.0000
  H   H32       1.0  0.97446  0.69178  0.24458  1.0000
  C   C61       1.0  0.00330  0.80448  0.32834  1.0000
  C   C62       1.0  0.99189  0.80005  0.28698  1.0000
  C   C63       1.0  0.98582  0.77827  0.29871  1.0000
  H   H33       1.0  0.98784  0.81271  0.24775  1.0000
  H   H34       1.0  0.97752  0.77583  0.26821  1.0000
  C   C64       1.0  0.00898  0.82641  0.31727  1.0000
  H   H35       1.0  0.00407  0.83993  0.29396  1.0000
  C   C65       1.0  0.02050  0.27869  0.28402  1.0000
  C   C66       1.0  0.02637  0.30066  0.29614  1.0000
  H   H36       1.0  0.01799  0.27371  0.22086  1.0000
  H   H37       1.0  0.02791  0.31108  0.24119  1.0000
  C   C67       1.0  0.99823  0.19877  0.32251  1.0000
  C   C68       1.0  0.00964  0.20300  0.28086  1.0000
  C   C69       1.0  0.01582  0.22468  0.29231  1.0000
  H   H38       1.0  0.01365  0.19022  0.24191  1.0000
  H   H39       1.0  0.02414  0.22692  0.26192  1.0000
  C   C70       1.0  0.99249  0.17686  0.31234  1.0000
  H   H40       1.0  0.99727  0.16336  0.28737  1.0000
  C   C71       1.0  0.30557  0.07066  0.29289  1.0000
  C   C72       1.0  0.30684  0.08651  0.21955  1.0000
  C   C73       1.0  0.30694  0.11134  0.23503  1.0000
  C   C74       1.0  0.30586  0.12090  0.32192  1.0000
  C   C75       1.0  0.30757  0.14573  0.33705  1.0000
  C   C76       1.0  0.30058  0.16344  0.29263  1.0000
  C   C77       1.0  0.30343  0.18778  0.30586  1.0000
  H   H41       1.0  0.29835  0.20026  0.27274  1.0000
  H   H42       1.0  0.30842  0.12248  0.18209  1.0000
  N   N11       1.0  0.29071  0.15654  0.23699  1.0000
  N   N12       1.0  0.30823  0.07736  0.13194  1.0000
  O   O21       1.0  0.29221  0.16362  0.15814  1.0000
  O   O22       1.0  0.31830  0.08336  0.09816  1.0000
  O   O23       1.0  0.28070  0.16448  0.26552  1.0000
  O   O24       1.0  0.29974  0.08421  0.08153  1.0000
  C   C78       1.0  0.30716  0.04633  0.28184  1.0000
  H   H43       1.0  0.31354  0.04087  0.23897  1.0000
  C   C79       1.0  0.69563  0.93121  0.29366  1.0000
  C   C80       1.0  0.69443  0.91535  0.22027  1.0000
  C   C81       1.0  0.69442  0.89051  0.23569  1.0000
  C   C82       1.0  0.69552  0.88095  0.32256  1.0000
  C   C83       1.0  0.69390  0.85608  0.33756  1.0000
  C   C84       1.0  0.70097  0.83849  0.29303  1.0000
  C   C85       1.0  0.69822  0.81410  0.30617  1.0000
  H   H44       1.0  0.70334  0.80171  0.27293  1.0000
  H   H45       1.0  0.69298  0.87936  0.18271  1.0000
  N   N13       1.0  0.71080  0.84555  0.23737  1.0000
  N   N14       1.0  0.69302  0.92449  0.13266  1.0000
  O   O25       1.0  0.70933  0.83848  0.15850  1.0000
  O   O26       1.0  0.68297  0.91836  0.09879  1.0000
  O   O27       1.0  0.72085  0.83777  0.26583  1.0000
  O   O28       1.0  0.70154  0.91776  0.08231  1.0000
  C   C86       1.0  0.69399  0.95553  0.28254  1.0000
  H   H46       1.0  0.68759  0.96091  0.23968  1.0000
  C   C87       1.0  0.19723  0.60495  0.27596  1.0000
  C   C88       1.0  0.19741  0.58026  0.29019  1.0000
  H   H47       1.0  0.19785  0.61119  0.21191  1.0000
  H   H48       1.0  0.19795  0.56935  0.23563  1.0000
  C   C89       1.0  0.18843  0.69508  0.30789  1.0000
  C   C90       1.0  0.18170  0.67718  0.26339  1.0000
  C   C91       1.0  0.18444  0.65303  0.27557  1.0000
  H   H49       1.0  0.17449  0.68150  0.22274  1.0000
  H   H50       1.0  0.17904  0.64072  0.24410  1.0000
  C   C92       1.0  0.18499  0.71880  0.29744  1.0000
  H   H51       1.0  0.17787  0.72247  0.25825  1.0000
  C   C93       1.0  0.80465  0.39691  0.27527  1.0000
  C   C94       1.0  0.80456  0.42160  0.28944  1.0000
  H   H52       1.0  0.80401  0.39067  0.21123  1.0000
  H   H53       1.0  0.80404  0.43252  0.23488  1.0000
  C   C95       1.0  0.81308  0.30662  0.30758  1.0000
  C   C96       1.0  0.81987  0.32441  0.26294  1.0000
  C   C97       1.0  0.81723  0.34861  0.27499  1.0000
  H   H54       1.0  0.82705  0.31996  0.22220  1.0000
  H   H55       1.0  0.82267  0.36082  0.24338  1.0000
  C   C98       1.0  0.81643  0.28285  0.29730  1.0000
  H   H56       1.0  0.82355  0.27907  0.25823  1.0000
  C   C99       1.0  0.28470  0.34849  0.29103  1.0000
  C   C100      1.0  0.27923  0.35949  0.21550  1.0000
  C   C101      1.0  0.26932  0.37540  0.22794  1.0000
  C   C102      1.0  0.26476  0.38079  0.31387  1.0000
  C   C103      1.0  0.25551  0.39843  0.32527  1.0000
  C   C104      1.0  0.24393  0.39696  0.28244  1.0000
  C   C105      1.0  0.23542  0.41579  0.29249  1.0000
  H   H57       1.0  0.22715  0.41450  0.26058  1.0000
  H   H58       1.0  0.26571  0.38378  0.17328  1.0000
  N   N15       1.0  0.24094  0.37650  0.23187  1.0000
  N   N16       1.0  0.28380  0.35462  0.12881  1.0000
  O   O29       1.0  0.23866  0.38165  0.15193  1.0000
  O   O30       1.0  0.28773  0.37310  0.09153  1.0000
  O   O31       1.0  0.23186  0.36582  0.26414  1.0000
  O   O32       1.0  0.27572  0.34547  0.07998  1.0000
  C   C106      1.0  0.29521  0.33480  0.28240  1.0000
  H   H59       1.0  0.30182  0.34069  0.24241  1.0000
  C   C107      1.0  0.71733  0.65332  0.29159  1.0000
  C   C108      1.0  0.72279  0.64229  0.21607  1.0000
  C   C109      1.0  0.73273  0.62646  0.22845  1.0000
  C   C110      1.0  0.73734  0.62116  0.31434  1.0000
  C   C111      1.0  0.74662  0.60357  0.32570  1.0000
  C   C112      1.0  0.75818  0.60502  0.28242  1.0000
  C   C113      1.0  0.76672  0.58623  0.29250  1.0000
  H   H60       1.0  0.77496  0.58751  0.26026  1.0000
  H   H61       1.0  0.73632  0.61803  0.17382  1.0000
  N   N17       1.0  0.76111  0.62543  0.23138  1.0000
  N   N18       1.0  0.71817  0.64705  0.12942  1.0000
  O   O33       1.0  0.76334  0.62018  0.15145  1.0000
  O   O34       1.0  0.71425  0.62850  0.09248  1.0000
  O   O35       1.0  0.77020  0.63619  0.26311  1.0000
  O   O36       1.0  0.72622  0.65620  0.08028  1.0000
  C   C114      1.0  0.70679  0.66694  0.28296  1.0000
  H   H62       1.0  0.70019  0.66099  0.24300  1.0000
  C   C115      1.0  0.23137  0.86958  0.28164  1.0000
  C   C116      1.0  0.22158  0.85362  0.29287  1.0000
  H   H63       1.0  0.23434  0.87328  0.21832  1.0000
  H   H64       1.0  0.21761  0.84647  0.23704  1.0000
  C   C117      1.0  0.26346  0.93624  0.32589  1.0000
  C   C118      1.0  0.25192  0.93726  0.28333  1.0000
  C   C119      1.0  0.24341  0.91870  0.29229  1.0000
  H   H65       1.0  0.24952  0.95173  0.24570  1.0000
  H   H66       1.0  0.23506  0.92044  0.26187  1.0000
  C   C120      1.0  0.27158  0.95522  0.31756  1.0000
  H   H67       1.0  0.26841  0.97081  0.29655  1.0000
  C   C121      1.0  0.76971  0.13240  0.28120  1.0000
  C   C122      1.0  0.77953  0.14829  0.29237  1.0000
  H   H68       1.0  0.76670  0.12879  0.21791  1.0000
  H   H69       1.0  0.78348  0.15549  0.23655  1.0000
  C   C123      1.0  0.73754  0.06583  0.32551  1.0000
  C   C124      1.0  0.74905  0.06483  0.28248  1.0000
  C   C125      1.0  0.75758  0.08335  0.29141  1.0000
  H   H70       1.0  0.75140  0.05041  0.24448  1.0000
  H   H71       1.0  0.76591  0.08161  0.26062  1.0000
  C   C126      1.0  0.72940  0.04688  0.31719  1.0000
  H   H72       1.0  0.73255  0.03132  0.29569  1.0000
  C   C127      1.0  0.09486  0.40975  0.28954  1.0000
  C   C128      1.0  0.10250  0.41065  0.21287  1.0000
  C   C129      1.0  0.11515  0.41542  0.22350  1.0000
  C   C130      1.0  0.12032  0.41971  0.30849  1.0000
  C   C131      1.0  0.13290  0.42587  0.31757  1.0000
  C   C132      1.0  0.13797  0.44608  0.27443  1.0000
  C   C133      1.0  0.15056  0.45131  0.28571  1.0000
  H   H73       1.0  0.15408  0.46588  0.25381  1.0000
  H   H74       1.0  0.12061  0.41603  0.16796  1.0000
  N   N19       1.0  0.13034  0.46112  0.22288  1.0000
  N   N20       1.0  0.09739  0.40688  0.12702  1.0000
  O   O37       1.0  0.13389  0.46231  0.14318  1.0000
  O   O38       1.0  0.09880  0.42473  0.07768  1.0000
  O   O39       1.0  0.12993  0.48176  0.25465  1.0000
  O   O40       1.0  0.10212  0.38916  0.08935  1.0000
  C   C134      1.0  0.08228  0.40751  0.28154  1.0000
  H   H75       1.0  0.07798  0.41783  0.23754  1.0000
  C   C135      1.0  0.90725  0.59315  0.29043  1.0000
  C   C136      1.0  0.89958  0.59176  0.21403  1.0000
  C   C137      1.0  0.88697  0.58668  0.22521  1.0000
  C   C138      1.0  0.88187  0.58251  0.31051  1.0000
  C   C139      1.0  0.86933  0.57612  0.32011  1.0000
  C   C140      1.0  0.86433  0.55575  0.27757  1.0000
  C   C141      1.0  0.85174  0.55040  0.28877  1.0000
  H   H76       1.0  0.84828  0.53573  0.25723  1.0000
  H   H77       1.0  0.88149  0.58574  0.16984  1.0000
  N   N21       1.0  0.87202  0.54067  0.22662  1.0000
  N   N22       1.0  0.90460  0.59535  0.12782  1.0000
  O   O41       1.0  0.86849  0.53926  0.14691  1.0000
  O   O42       1.0  0.90332  0.57727  0.07949  1.0000
  O   O43       1.0  0.87247  0.52011  0.25905  1.0000
  O   O44       1.0  0.89973  0.61278  0.08931  1.0000
  C   C142      1.0  0.91981  0.59559  0.28173  1.0000
  H   H78       1.0  0.92408  0.58537  0.23724  1.0000
  C   C143      1.0  0.38896  0.91834  0.28571  1.0000
  C   C144      1.0  0.40151  0.91350  0.29505  1.0000
  H   H79       1.0  0.38554  0.92169  0.22329  1.0000
  H   H80       1.0  0.40688  0.91358  0.23893  1.0000
  C   C145      1.0  0.34332  0.93698  0.33064  1.0000
  C   C146      1.0  0.34856  0.91702  0.28801  1.0000
  C   C147      1.0  0.36104  0.91163  0.29830  1.0000
  H   H81       1.0  0.34332  0.90613  0.24871  1.0000
  H   H82       1.0  0.36446  0.89690  0.26679  1.0000
  C   C148      1.0  0.33089  0.94172  0.32034  1.0000
  H   H83       1.0  0.32542  0.92883  0.29868  1.0000
  C   C149      1.0  0.61202  0.08437  0.28396  1.0000
  C   C150      1.0  0.59950  0.08953  0.29386  1.0000
  H   H84       1.0  0.61538  0.08115  0.22129  1.0000
  H   H85       1.0  0.59411  0.08980  0.23789  1.0000
  C   C151      1.0  0.65764  0.06479  0.32830  1.0000
  C   C152      1.0  0.65246  0.08488  0.28611  1.0000
  C   C153      1.0  0.63999  0.09039  0.29631  1.0000
  H   H86       1.0  0.65775  0.09582  0.24734  1.0000
  H   H87       1.0  0.63663  0.10524  0.26531  1.0000
  C   C154      1.0  0.67007  0.06001  0.31831  1.0000
  H   H88       1.0  0.67555  0.07283  0.29618  1.0000
  C   C155      1.0  0.00883  0.47672  0.27742  1.0000
  C   C156      1.0  0.01666  0.45725  0.29056  1.0000
  H   H89       1.0  0.00705  0.48223  0.21357  1.0000
  H   H90       1.0  0.02022  0.44895  0.23548  1.0000
  C   C157      1.0  0.97609  0.54193  0.31374  1.0000
  C   C158      1.0  0.97494  0.51918  0.27473  1.0000
  C   C159      1.0  0.98406  0.50189  0.28629  1.0000
  H   H91       1.0  0.96733  0.51477  0.23825  1.0000
  H   H92       1.0  0.98274  0.48546  0.25855  1.0000
  C   C160      1.0  0.96670  0.55842  0.30284  1.0000
  H   H93       1.0  0.95947  0.55403  0.26586  1.0000
  C   C161      1.0  0.48246  0.94864  0.29236  1.0000
  C   C162      1.0  0.48790  0.96012  0.21777  1.0000
  C   C163      1.0  0.49573  0.97981  0.23213  1.0000
  C   C164      1.0  0.49830  0.98820  0.31901  1.0000
  C   C165      1.0  0.50695  0.00671  0.33240  1.0000
  C   C166      1.0  0.50554  0.02952  0.29332  1.0000
  C   C167      1.0  0.51481  0.04680  0.30591  1.0000
  H   H94       1.0  0.51365  0.06314  0.27716  1.0000
  H   H95       1.0  0.49990  0.98755  0.17826  1.0000
  N   N23       1.0  0.49480  0.03483  0.24409  1.0000
  N   N24       1.0  0.48553  0.95172  0.13021  1.0000
  O   O45       1.0  0.49727  0.04040  0.16485  1.0000
  O   O46       1.0  0.49519  0.94504  0.09210  1.0000
  O   O47       1.0  0.48887  0.05149  0.27933  1.0000
  O   O48       1.0  0.48052  0.96741  0.08303  1.0000
  C   C168      1.0  0.47562  0.92813  0.28180  1.0000
  H   H96       1.0  0.47856  0.91589  0.23884  1.0000
  C   C169      1.0  0.45289  0.36386  0.33928  1.0000
  C   C170      1.0  0.45749  0.38737  0.33853  1.0000
  C   C171      1.0  0.47025  0.39173  0.33671  1.0000
  C   C172      1.0  0.47837  0.37226  0.33566  1.0000
  C   C173      1.0  0.47400  0.34865  0.33837  1.0000
  C   C174      1.0  0.46125  0.34475  0.33976  1.0000
  H   H97       1.0  0.48759  0.37535  0.33197  1.0000
  H   H98       1.0  0.45800  0.32766  0.34030  1.0000
  H   H99       1.0  0.45154  0.40136  0.33890  1.0000
  N   N25       1.0  0.44107  0.35821  0.34115  1.0000
  N   N26       1.0  0.47540  0.41306  0.33337  1.0000
  N   N27       1.0  0.48123  0.32966  0.33455  1.0000
  C   C175      1.0  0.54871  0.63933  0.33287  1.0000
  C   C176      1.0  0.54409  0.61583  0.33170  1.0000
  C   C177      1.0  0.53133  0.61145  0.33214  1.0000
  C   C178      1.0  0.52322  0.63092  0.33487  1.0000
  C   C179      1.0  0.52761  0.65452  0.33723  1.0000
  C   C180      1.0  0.54036  0.65843  0.33570  1.0000
  H   H100      1.0  0.51398  0.62785  0.33347  1.0000
  H   H101      1.0  0.54361  0.67551  0.33652  1.0000
  H   H102      1.0  0.55005  0.60186  0.33166  1.0000
  N   N28       1.0  0.56054  0.64492  0.33414  1.0000
  N   N29       1.0  0.52619  0.59005  0.33056  1.0000
  N   N30       1.0  0.52038  0.67352  0.33560  1.0000
  C   C181      1.0  0.04871  0.86387  0.33060  1.0000
  C   C182      1.0  0.04410  0.88738  0.33131  1.0000
  C   C183      1.0  0.03134  0.89173  0.33312  1.0000
  C   C184      1.0  0.02323  0.87226  0.33419  1.0000
  C   C185      1.0  0.02760  0.84865  0.33151  1.0000
  C   C186      1.0  0.04035  0.84476  0.33012  1.0000
  H   H103      1.0  0.01401  0.87535  0.33787  1.0000
  H   H104      1.0  0.04360  0.82767  0.32960  1.0000
  H   H105      1.0  0.05006  0.90137  0.33093  1.0000
  N   N31       1.0  0.06053  0.85822  0.32873  1.0000
  N   N32       1.0  0.02619  0.91307  0.33644  1.0000
  N   N33       1.0  0.02037  0.82966  0.33534  1.0000
  C   C187      1.0  0.95288  0.13933  0.33681  1.0000
  C   C188      1.0  0.95750  0.11583  0.33771  1.0000
  C   C189      1.0  0.97026  0.11144  0.33709  1.0000
  C   C190      1.0  0.97838  0.13091  0.33438  1.0000
  C   C191      1.0  0.97399  0.15452  0.33233  1.0000
  C   C192      1.0  0.96125  0.15842  0.33404  1.0000
  H   H106      1.0  0.98762  0.12783  0.33562  1.0000
  H   H107      1.0  0.95799  0.17551  0.33340  1.0000
  H   H108      1.0  0.95154  0.10186  0.33763  1.0000
  N   N34       1.0  0.94105  0.14492  0.33562  1.0000
  N   N35       1.0  0.97539  0.09004  0.33832  1.0000
  N   N36       1.0  0.98122  0.17351  0.33403  1.0000
  C   C193      1.0  0.32837  0.29277  0.33272  1.0000
  C   C194      1.0  0.31843  0.30869  0.32760  1.0000
  C   C195      1.0  0.30620  0.30040  0.32521  1.0000
  C   C196      1.0  0.30402  0.27570  0.32909  1.0000
  C   C197      1.0  0.31379  0.25934  0.33376  1.0000
  C   C198      1.0  0.32594  0.26811  0.33407  1.0000
  H   H109      1.0  0.29519  0.26954  0.32804  1.0000
  H   H110      1.0  0.33311  0.25643  0.33393  1.0000
  H   H111      1.0  0.32012  0.32658  0.32725  1.0000
  N   N37       1.0  0.33966  0.30173  0.33301  1.0000
  N   N38       1.0  0.29662  0.31504  0.32433  1.0000
  N   N39       1.0  0.31122  0.23619  0.33273  1.0000
  C   C199      1.0  0.67354  0.70886  0.33164  1.0000
  C   C200      1.0  0.68350  0.69299  0.32696  1.0000
  C   C201      1.0  0.69573  0.70132  0.32537  1.0000
  C   C202      1.0  0.69788  0.72603  0.32947  1.0000
  C   C203      1.0  0.68808  0.74236  0.33365  1.0000
  C   C204      1.0  0.67595  0.73353  0.33322  1.0000
  H   H112      1.0  0.70670  0.73223  0.32887  1.0000
  H   H113      1.0  0.66876  0.74518  0.33270  1.0000
  H   H114      1.0  0.68183  0.67509  0.32634  1.0000
  N   N40       1.0  0.66226  0.69989  0.33096  1.0000
  N   N41       1.0  0.70534  0.68672  0.32465  1.0000
  N   N42       1.0  0.69062  0.76553  0.33279  1.0000
  C   C205      1.0  0.17323  0.79277  0.33717  1.0000
  C   C206      1.0  0.18316  0.80869  0.34228  1.0000
  C   C207      1.0  0.19539  0.80040  0.34467  1.0000
  C   C208      1.0  0.19758  0.77570  0.34080  1.0000
  C   C209      1.0  0.18780  0.75934  0.33612  1.0000
  C   C210      1.0  0.17566  0.76811  0.33582  1.0000
  H   H115      1.0  0.20640  0.76954  0.34185  1.0000
  H   H116      1.0  0.16849  0.75643  0.33595  1.0000
  H   H117      1.0  0.18147  0.82658  0.34263  1.0000
  N   N43       1.0  0.16194  0.80174  0.33688  1.0000
  N   N44       1.0  0.20498  0.81504  0.34555  1.0000
  N   N45       1.0  0.19038  0.73619  0.33716  1.0000
  C   C211      1.0  0.82805  0.20886  0.33825  1.0000
  C   C212      1.0  0.81809  0.19299  0.34293  1.0000
  C   C213      1.0  0.80587  0.20132  0.34450  1.0000
  C   C214      1.0  0.80372  0.22603  0.34040  1.0000
  C   C215      1.0  0.81351  0.24236  0.33622  1.0000
  C   C216      1.0  0.82565  0.23353  0.33666  1.0000
  H   H118      1.0  0.79490  0.23223  0.34099  1.0000
  H   H119      1.0  0.83283  0.24518  0.33719  1.0000
  H   H120      1.0  0.81977  0.17509  0.34354  1.0000
  N   N46       1.0  0.83934  0.19989  0.33894  1.0000
  N   N47       1.0  0.79626  0.18672  0.34522  1.0000
  N   N48       1.0  0.81098  0.26553  0.33709  1.0000
  C   C217      1.0  0.04318  0.40574  0.34348  1.0000
  C   C218      1.0  0.05590  0.40933  0.33664  1.0000
  C   C219      1.0  0.06408  0.38988  0.33311  1.0000
  C   C220      1.0  0.05936  0.36656  0.33802  1.0000
  C   C221      1.0  0.04664  0.36256  0.34447  1.0000
  C   C222      1.0  0.03863  0.38228  0.34509  1.0000
  H   H121      1.0  0.06523  0.35238  0.33633  1.0000
  H   H122      1.0  0.02937  0.37950  0.34580  1.0000
  H   H123      1.0  0.05925  0.42632  0.33540  1.0000
  N   N49       1.0  0.03587  0.42458  0.34340  1.0000
  N   N50       1.0  0.07614  0.39300  0.33045  1.0000
  N   N51       1.0  0.04235  0.34045  0.34412  1.0000
  C   C223      1.0  0.95904  0.59690  0.33697  1.0000
  C   C224      1.0  0.94624  0.59350  0.33355  1.0000
  C   C225      1.0  0.93811  0.61305  0.33219  1.0000
  C   C226      1.0  0.94294  0.63625  0.33803  1.0000
  C   C227      1.0  0.95570  0.64001  0.34440  1.0000
  C   C228      1.0  0.96364  0.62019  0.34290  1.0000
  H   H124      1.0  0.93713  0.65052  0.33802  1.0000
  H   H125      1.0  0.97293  0.62278  0.34498  1.0000
  H   H126      1.0  0.94278  0.57662  0.33315  1.0000
  N   N52       1.0  0.96704  0.57917  0.33858  1.0000
  N   N53       1.0  0.92603  0.61001  0.33064  1.0000
  N   N54       1.0  0.96002  0.66207  0.34596  1.0000
  C   C229      1.0  0.45842  0.90575  0.32640  1.0000
  C   C230      1.0  0.44570  0.90934  0.33323  1.0000
  C   C231      1.0  0.43752  0.88988  0.33677  1.0000
  C   C232      1.0  0.44224  0.86657  0.33188  1.0000
  C   C233      1.0  0.45496  0.86256  0.32543  1.0000
  C   C234      1.0  0.46297  0.88228  0.32480  1.0000
  H   H127      1.0  0.43637  0.85239  0.33357  1.0000
  H   H128      1.0  0.47223  0.87951  0.32408  1.0000
  H   H129      1.0  0.44235  0.92632  0.33447  1.0000
  N   N55       1.0  0.46573  0.92458  0.32648  1.0000
  N   N56       1.0  0.42546  0.89301  0.33944  1.0000
  N   N57       1.0  0.45925  0.84045  0.32579  1.0000
  C   C235      1.0  0.54256  0.09690  0.33288  1.0000
  C   C236      1.0  0.55536  0.09350  0.33631  1.0000
  C   C237      1.0  0.56349  0.11305  0.33769  1.0000
  C   C238      1.0  0.55865  0.13625  0.33184  1.0000
  C   C239      1.0  0.54590  0.14000  0.32547  1.0000
  C   C240      1.0  0.53795  0.12019  0.32694  1.0000
  H   H130      1.0  0.56447  0.15052  0.33186  1.0000
  H   H131      1.0  0.52867  0.12278  0.32486  1.0000
  H   H132      1.0  0.55882  0.07662  0.33671  1.0000
  N   N58       1.0  0.53455  0.07917  0.33125  1.0000
  N   N59       1.0  0.57556  0.11000  0.33924  1.0000
  N   N60       1.0  0.54158  0.16207  0.32390  1.0000
  C   C241      1.0  0.18653  0.47120  0.33908  1.0000
  C   C242      1.0  0.19729  0.45723  0.33759  1.0000
  C   C243      1.0  0.20900  0.46775  0.33967  1.0000
  C   C244      1.0  0.20990  0.49284  0.34201  1.0000
  C   C245      1.0  0.19931  0.50719  0.34438  1.0000
  C   C246      1.0  0.18769  0.49612  0.34132  1.0000
  H   H133      1.0  0.21832  0.50080  0.34149  1.0000
  H   H134      1.0  0.17996  0.50640  0.33975  1.0000
  H   H135      1.0  0.19660  0.43913  0.33359  1.0000
  N   N61       1.0  0.17525  0.46240  0.33427  1.0000
  N   N62       1.0  0.21851  0.45300  0.33629  1.0000
  N   N63       1.0  0.20051  0.53075  0.34324  1.0000
  C   C247      1.0  0.81566  0.53066  0.33939  1.0000
  C   C248      1.0  0.80492  0.54470  0.33790  1.0000
  C   C249      1.0  0.79318  0.53425  0.33960  1.0000
  C   C250      1.0  0.79225  0.50916  0.34156  1.0000
  C   C251      1.0  0.80281  0.49474  0.34394  1.0000
  C   C252      1.0  0.81445  0.50575  0.34131  1.0000
  H   H136      1.0  0.78382  0.50125  0.34074  1.0000
  H   H137      1.0  0.82217  0.49542  0.33986  1.0000
  H   H138      1.0  0.80565  0.56280  0.33413  1.0000
  N   N64       1.0  0.82696  0.53941  0.33516  1.0000
  N   N65       1.0  0.78369  0.54906  0.33624  1.0000
  N   N66       1.0  0.80157  0.47118  0.34266  1.0000
  C   C253      1.0  0.31507  0.97120  0.33081  1.0000
  C   C254      1.0  0.30431  0.95722  0.33227  1.0000
  C   C255      1.0  0.29259  0.96775  0.33017  1.0000
  C   C256      1.0  0.29170  0.99284  0.32783  1.0000
  C   C257      1.0  0.30229  0.00719  0.32549  1.0000
  C   C258      1.0  0.31391  0.99612  0.32857  1.0000
  H   H139      1.0  0.28328  0.00080  0.32834  1.0000
  H   H140      1.0  0.32164  0.00640  0.33016  1.0000
  H   H141      1.0  0.30500  0.93913  0.33626  1.0000
  N   N67       1.0  0.32635  0.96240  0.33562  1.0000
  N   N68       1.0  0.28309  0.95300  0.33350  1.0000
  N   N69       1.0  0.30108  0.03075  0.32664  1.0000
  C   C259      1.0  0.68594  0.03066  0.33049  1.0000
  C   C260      1.0  0.69667  0.04470  0.33197  1.0000
  C   C261      1.0  0.70841  0.03425  0.33027  1.0000
  C   C262      1.0  0.70935  0.00916  0.32831  1.0000
  C   C263      1.0  0.69878  0.99474  0.32593  1.0000
  C   C264      1.0  0.68714  0.00574  0.32857  1.0000
  H   H142      1.0  0.71778  0.00125  0.32913  1.0000
  H   H143      1.0  0.67942  0.99541  0.33002  1.0000
  H   H144      1.0  0.69595  0.06280  0.33574  1.0000
  N   N70       1.0  0.67464  0.03941  0.33472  1.0000
  N   N71       1.0  0.71790  0.04906  0.33363  1.0000
  N   N72       1.0  0.70003  0.97118  0.32721  1.0000
  C   C265      1.0  0.51054  0.52065  0.40145  1.0000
  C   C266      1.0  0.51885  0.53971  0.39843  1.0000
  H   H145      1.0  0.50856  0.51310  0.46195  1.0000
  H   H146      1.0  0.52262  0.54567  0.45696  1.0000
  C   C267      1.0  0.48001  0.45337  0.33521  1.0000
  C   C268      1.0  0.47791  0.47463  0.38287  1.0000
  C   C269      1.0  0.48628  0.49358  0.37835  1.0000
  H   H147      1.0  0.47030  0.47646  0.42226  1.0000
  H   H148      1.0  0.48440  0.50872  0.41373  1.0000
  C   C270      1.0  0.47175  0.43463  0.34154  1.0000
  H   H149      1.0  0.46302  0.43795  0.35548  1.0000
  C   C271      1.0  0.97959  0.05035  0.35403  1.0000
  C   C272      1.0  0.98491  0.04170  0.43411  1.0000
  C   C273      1.0  0.99327  0.02252  0.42969  1.0000
  C   C274      1.0  0.99639  0.01169  0.34758  1.0000
  C   C275      1.0  0.00463  0.99205  0.34460  1.0000
  C   C276      1.0  0.00239  0.97081  0.39322  1.0000
  C   C277      1.0  0.01088  0.95185  0.38768  1.0000
  H   H150      1.0  0.00912  0.93667  0.42310  1.0000
  H   H151      1.0  0.99719  0.01652  0.48757  1.0000
  N   N73       1.0  0.99152  0.96849  0.44424  1.0000
  N   N74       1.0  0.98185  0.05244  0.51673  1.0000
  O   O49       1.0  0.99384  0.96486  0.52529  1.0000
  O   O50       1.0  0.97700  0.03774  0.56913  1.0000
  O   O51       1.0  0.98491  0.95186  0.41586  1.0000
  O   O52       1.0  0.99111  0.06119  0.55394  1.0000
  C   C278      1.0  0.97143  0.06905  0.35487  1.0000
  H   H152      1.0  0.96284  0.06617  0.37373  1.0000
  C   C279      1.0  0.36024  0.30666  0.36879  1.0000
  C   C280      1.0  0.36622  0.31592  0.44541  1.0000
  C   C281      1.0  0.37793  0.32647  0.43603  1.0000
  C   C282      1.0  0.38392  0.32765  0.35248  1.0000
  C   C283      1.0  0.39594  0.33738  0.34523  1.0000
  C   C284      1.0  0.40593  0.32837  0.39578  1.0000
  C   C285      1.0  0.41763  0.33905  0.38730  1.0000
  H   H153      1.0  0.42469  0.33240  0.42465  1.0000
  H   H154      1.0  0.38214  0.33325  0.49154  1.0000
  N   N75       1.0  0.40420  0.30845  0.45218  1.0000
  N   N76       1.0  0.36042  0.31457  0.52992  1.0000
  O   O53       1.0  0.40668  0.31327  0.53210  1.0000
  O   O54       1.0  0.36668  0.30271  0.58440  1.0000
  O   O55       1.0  0.41066  0.29113  0.42799  1.0000
  O   O56       1.0  0.35860  0.33488  0.56213  1.0000
  C   C286      1.0  0.34919  0.29478  0.37607  1.0000
  H   H155      1.0  0.34864  0.28119  0.41838  1.0000
  C   C287      1.0  0.64163  0.69497  0.36568  1.0000
  C   C288      1.0  0.63554  0.68558  0.44165  1.0000
  C   C289      1.0  0.62380  0.67526  0.43131  1.0000
  C   C290      1.0  0.61786  0.67445  0.34747  1.0000
  C   C291      1.0  0.60579  0.66500  0.33933  1.0000
  C   C292      1.0  0.59581  0.67406  0.38993  1.0000
  C   C293      1.0  0.58406  0.66367  0.38060  1.0000
  H   H156      1.0  0.57702  0.67034  0.41808  1.0000
  H   H157      1.0  0.61950  0.66841  0.48636  1.0000
  N   N77       1.0  0.59762  0.69377  0.44730  1.0000
  N   N78       1.0  0.64127  0.68660  0.52647  1.0000
  O   O57       1.0  0.59507  0.68874  0.52692  1.0000
  O   O58       1.0  0.63502  0.69842  0.58113  1.0000
  O   O59       1.0  0.59128  0.71129  0.42372  1.0000
  O   O60       1.0  0.64297  0.66618  0.55796  1.0000
  C   C294      1.0  0.65270  0.70674  0.37400  1.0000
  H   H158      1.0  0.65324  0.72017  0.41702  1.0000
  C   C295      1.0  0.12386  0.81871  0.39317  1.0000
  C   C296      1.0  0.13552  0.80832  0.38515  1.0000
  H   H159      1.0  0.11975  0.81907  0.45461  1.0000
  H   H160      1.0  0.13957  0.80139  0.44111  1.0000
  C   C297      1.0  0.08189  0.85853  0.34042  1.0000
  C   C298      1.0  0.09191  0.86712  0.39061  1.0000
  C   C299      1.0  0.10357  0.85667  0.38321  1.0000
  H   H161      1.0  0.09084  0.88118  0.43333  1.0000
  H   H162      1.0  0.11061  0.86363  0.42000  1.0000
  C   C300      1.0  0.07046  0.86935  0.34798  1.0000
  H   H163      1.0  0.06995  0.88584  0.37155  1.0000
  C   C301      1.0  0.87745  0.18349  0.39756  1.0000
  C   C302      1.0  0.86575  0.19366  0.38859  1.0000
  H   H164      1.0  0.88151  0.18341  0.45917  1.0000
  H   H165      1.0  0.86162  0.20069  0.44407  1.0000
  C   C303      1.0  0.91969  0.14442  0.34798  1.0000
  C   C304      1.0  0.90969  0.13578  0.39826  1.0000
  C   C305      1.0  0.89798  0.14596  0.39006  1.0000
  H   H166      1.0  0.91081  0.12186  0.44155  1.0000
  H   H167      1.0  0.89095  0.13896  0.42692  1.0000
  C   C306      1.0  0.93117  0.13379  0.35598  1.0000
  H   H168      1.0  0.93172  0.11735  0.37993  1.0000
  C   C307      1.0  0.52001  0.22425  0.38089  1.0000
  C   C308      1.0  0.52571  0.20207  0.36984  1.0000
  H   H169      1.0  0.51753  0.22949  0.44380  1.0000
  H   H170      1.0  0.52714  0.19178  0.42528  1.0000
  C   C309      1.0  0.49830  0.30448  0.34155  1.0000
  C   C310      1.0  0.50971  0.30005  0.38291  1.0000
  C   C311      1.0  0.51578  0.27827  0.37117  1.0000
  H   H171      1.0  0.51376  0.31271  0.42215  1.0000
  H   H172      1.0  0.52408  0.27583  0.40168  1.0000
  C   C312      1.0  0.49262  0.32641  0.35262  1.0000
  H   H173      1.0  0.49753  0.33993  0.37593  1.0000
  C   C313      1.0  0.48110  0.77870  0.38587  1.0000
  C   C314      1.0  0.47523  0.80067  0.37376  1.0000
  H   H174      1.0  0.48361  0.77372  0.44903  1.0000
  H   H175      1.0  0.47369  0.81108  0.42871  1.0000
  C   C315      1.0  0.50338  0.69878  0.34726  1.0000
  C   C316      1.0  0.49197  0.70300  0.38894  1.0000
  C   C317      1.0  0.48579  0.72468  0.37753  1.0000
  H   H176      1.0  0.48796  0.69021  0.42787  1.0000
  H   H177      1.0  0.47747  0.72691  0.40794  1.0000
  C   C318      1.0  0.50912  0.67686  0.35736  1.0000
  H   H178      1.0  0.50434  0.66336  0.38232  1.0000
  C   C319      1.0  0.97280  0.69358  0.38609  1.0000
  C   C320      1.0  0.97539  0.70793  0.46177  1.0000
  C   C321      1.0  0.98107  0.73031  0.44943  1.0000
  C   C322      1.0  0.98443  0.73849  0.36369  1.0000
  C   C323      1.0  0.99089  0.76025  0.35297  1.0000
  C   C324      1.0  0.00240  0.76428  0.39472  1.0000
  C   C325      1.0  0.00841  0.78631  0.38201  1.0000
  H   H179      1.0  0.01665  0.78897  0.41305  1.0000
  H   H180      1.0  0.98294  0.74054  0.50428  1.0000
  N   N79       1.0  0.00788  0.74608  0.44643  1.0000
  N   N80       1.0  0.97237  0.69968  0.54842  1.0000
  O   O61       1.0  0.00959  0.75261  0.52570  1.0000
  O   O62       1.0  0.98173  0.69778  0.59673  1.0000
  O   O63       1.0  0.01795  0.73961  0.41387  1.0000
  O   O64       1.0  0.96489  0.71330  0.58635  1.0000
  C   C326      1.0  0.96855  0.67056  0.39584  1.0000
  H   H181      1.0  0.97258  0.66023  0.44117  1.0000
  C   C327      1.0  0.02949  0.30880  0.38263  1.0000
  C   C328      1.0  0.02676  0.29429  0.45761  1.0000
  C   C329      1.0  0.02091  0.27213  0.44420  1.0000
  C   C330      1.0  0.01750  0.26433  0.35808  1.0000
  C   C331      1.0  0.01085  0.24281  0.34655  1.0000
  C   C332      1.0  0.99932  0.23904  0.38824  1.0000
  C   C333      1.0  0.99320  0.21712  0.37578  1.0000
  H   H182      1.0  0.98495  0.21464  0.40697  1.0000
  H   H183      1.0  0.01893  0.26180  0.49859  1.0000
  N   N81       1.0  0.99393  0.25738  0.43984  1.0000
  N   N82       1.0  0.02979  0.30219  0.54473  1.0000
  O   O65       1.0  0.99219  0.25092  0.51916  1.0000
  O   O66       1.0  0.02042  0.30423  0.59282  1.0000
  O   O67       1.0  0.98391  0.26403  0.40724  1.0000
  O   O68       1.0  0.03714  0.28823  0.58231  1.0000
  C   C334      1.0  0.03385  0.33171  0.39375  1.0000
  H   H184      1.0  0.02986  0.34185  0.43990  1.0000
  C   C335      1.0  0.30436  0.10495  0.39392  1.0000
  C   C336      1.0  0.30419  0.08026  0.37969  1.0000
  H   H185      1.0  0.30375  0.11119  0.45797  1.0000
  H   H186      1.0  0.30365  0.06935  0.43425  1.0000
  C   C337      1.0  0.31317  0.19508  0.36199  1.0000
  C   C338      1.0  0.31990  0.17718  0.40649  1.0000
  C   C339      1.0  0.31716  0.15303  0.39430  1.0000
  H   H187      1.0  0.32711  0.18150  0.44714  1.0000
  H   H188      1.0  0.32256  0.14072  0.42577  1.0000
  C   C340      1.0  0.31661  0.21880  0.37244  1.0000
  H   H189      1.0  0.32373  0.22247  0.41163  1.0000
  C   C341      1.0  0.69695  0.89691  0.39460  1.0000
  C   C342      1.0  0.69703  0.92160  0.38043  1.0000
  H   H190      1.0  0.69759  0.89067  0.45864  1.0000
  H   H191      1.0  0.69756  0.93253  0.43499  1.0000
  C   C343      1.0  0.68851  0.80663  0.36229  1.0000
  C   C344      1.0  0.68172  0.82441  0.40693  1.0000
  C   C345      1.0  0.68436  0.84861  0.39488  1.0000
  H   H192      1.0  0.67454  0.81996  0.44767  1.0000
  H   H193      1.0  0.67892  0.86082  0.42649  1.0000
  C   C346      1.0  0.68517  0.78285  0.37258  1.0000
  H   H194      1.0  0.67805  0.77907  0.41165  1.0000
  C   C347      1.0  0.19602  0.57066  0.37698  1.0000
  C   C348      1.0  0.19476  0.58651  0.45033  1.0000
  C   C349      1.0  0.19465  0.61134  0.43484  1.0000
  C   C350      1.0  0.19574  0.62090  0.34796  1.0000
  C   C351      1.0  0.19402  0.64573  0.33283  1.0000
  C   C352      1.0  0.20102  0.66344  0.37725  1.0000
  C   C353      1.0  0.19816  0.68778  0.36402  1.0000
  H   H195      1.0  0.20325  0.70025  0.39714  1.0000
  H   H196      1.0  0.19318  0.62249  0.48779  1.0000
  N   N83       1.0  0.21088  0.65654  0.43289  1.0000
  N   N84       1.0  0.19336  0.57736  0.53794  1.0000
  O   O69       1.0  0.20939  0.66362  0.51174  1.0000
  O   O70       1.0  0.18329  0.58337  0.57171  1.0000
  O   O71       1.0  0.22090  0.66448  0.40435  1.0000
  O   O72       1.0  0.20186  0.58421  0.58835  1.0000
  C   C354      1.0  0.19444  0.54633  0.38803  1.0000
  H   H197      1.0  0.18806  0.54087  0.43091  1.0000
  C   C355      1.0  0.80596  0.43121  0.37621  1.0000
  C   C356      1.0  0.80717  0.41535  0.44960  1.0000
  C   C357      1.0  0.80718  0.39051  0.43418  1.0000
  C   C358      1.0  0.80608  0.38095  0.34730  1.0000
  C   C359      1.0  0.80769  0.35608  0.33231  1.0000
  C   C360      1.0  0.80063  0.33849  0.37684  1.0000
  C   C361      1.0  0.80338  0.31410  0.36370  1.0000
  H   H198      1.0  0.79825  0.30171  0.39694  1.0000
  H   H199      1.0  0.80862  0.37936  0.48716  1.0000
  N   N85       1.0  0.79080  0.34555  0.43250  1.0000
  N   N86       1.0  0.80858  0.42449  0.53721  1.0000
  O   O73       1.0  0.79227  0.33848  0.51137  1.0000
  O   O74       1.0  0.81862  0.41836  0.57107  1.0000
  O   O75       1.0  0.78074  0.33777  0.40404  1.0000
  O   O76       1.0  0.80005  0.41776  0.58756  1.0000
  C   C362      1.0  0.80760  0.45553  0.38733  1.0000
  H   H200      1.0  0.81400  0.46091  0.43018  1.0000
  C   C363      1.0  0.27023  0.36958  0.38823  1.0000
  C   C364      1.0  0.28001  0.35362  0.37700  1.0000
  H   H201      1.0  0.26725  0.37328  0.45154  1.0000
  H   H202      1.0  0.28398  0.34646  0.43283  1.0000
  C   C365      1.0  0.23814  0.43624  0.34394  1.0000
  C   C366      1.0  0.24968  0.43726  0.38652  1.0000
  C   C367      1.0  0.25818  0.41869  0.37757  1.0000
  H   H203      1.0  0.25207  0.45173  0.42414  1.0000
  H   H204      1.0  0.26653  0.42044  0.40800  1.0000
  C   C368      1.0  0.23002  0.45522  0.35222  1.0000
  H   H205      1.0  0.23318  0.47081  0.37334  1.0000
  C   C369      1.0  0.73189  0.63240  0.38867  1.0000
  C   C370      1.0  0.72206  0.64829  0.37750  1.0000
  H   H206      1.0  0.73490  0.62878  0.45196  1.0000
  H   H207      1.0  0.71812  0.65549  0.43332  1.0000
  C   C371      1.0  0.76406  0.56583  0.34436  1.0000
  C   C372      1.0  0.75255  0.56483  0.38739  1.0000
  C   C373      1.0  0.74401  0.58335  0.37846  1.0000
  H   H208      1.0  0.75019  0.55040  0.42538  1.0000
  H   H209      1.0  0.73569  0.58161  0.40925  1.0000
  C   C374      1.0  0.77219  0.54688  0.35268  1.0000
  H   H210      1.0  0.76905  0.53132  0.37418  1.0000
  C   C375      1.0  0.21690  0.84849  0.37885  1.0000
  C   C376      1.0  0.22237  0.85949  0.45437  1.0000
  C   C377      1.0  0.23227  0.87540  0.44193  1.0000
  C   C378      1.0  0.23684  0.88079  0.35599  1.0000
  C   C379      1.0  0.24608  0.89843  0.34458  1.0000
  C   C380      1.0  0.25767  0.89696  0.38740  1.0000
  C   C381      1.0  0.26618  0.91579  0.37732  1.0000
  H   H211      1.0  0.27445  0.91450  0.40921  1.0000
  H   H212      1.0  0.23589  0.88379  0.49658  1.0000
  N   N87       1.0  0.26066  0.87650  0.43795  1.0000
  N   N88       1.0  0.21780  0.85462  0.54107  1.0000
  O   O77       1.0  0.26294  0.88165  0.51789  1.0000
  O   O78       1.0  0.21387  0.87310  0.57834  1.0000
  O   O79       1.0  0.26973  0.86581  0.40568  1.0000
  O   O80       1.0  0.22588  0.84547  0.58988  1.0000
  C   C382      1.0  0.20639  0.83480  0.38748  1.0000
  H   H213      1.0  0.19977  0.84069  0.42748  1.0000
  C   C383      1.0  0.78426  0.15332  0.37829  1.0000
  C   C384      1.0  0.77881  0.14229  0.45381  1.0000
  C   C385      1.0  0.76887  0.12646  0.44142  1.0000
  C   C386      1.0  0.76425  0.12116  0.35553  1.0000
  C   C387      1.0  0.75497  0.10357  0.34417  1.0000
  C   C388      1.0  0.74342  0.10502  0.38745  1.0000
  C   C389      1.0  0.73488  0.08623  0.37736  1.0000
  H   H214      1.0  0.72664  0.08751  0.40962  1.0000
  H   H215      1.0  0.76527  0.11803  0.49605  1.0000
  N   N89       1.0  0.74049  0.12543  0.43849  1.0000
  N   N90       1.0  0.78342  0.14705  0.54045  1.0000
  O   O81       1.0  0.73826  0.12018  0.51842  1.0000
  O   O82       1.0  0.78734  0.12850  0.57740  1.0000
  O   O83       1.0  0.73140  0.13619  0.40676  1.0000
  O   O84       1.0  0.77538  0.15620  0.58959  1.0000
  C   C390      1.0  0.79480  0.16694  0.38692  1.0000
  H   H216      1.0  0.80141  0.16099  0.42688  1.0000
  C   C391      1.0  0.11264  0.41834  0.38417  1.0000
  C   C392      1.0  0.10009  0.41349  0.37484  1.0000
  H   H217      1.0  0.11606  0.42168  0.44660  1.0000
  H   H218      1.0  0.09472  0.41357  0.43096  1.0000
  C   C393      1.0  0.15828  0.43698  0.33924  1.0000
  C   C394      1.0  0.15304  0.41702  0.38188  1.0000
  C   C395      1.0  0.14056  0.41162  0.37159  1.0000
  H   H219      1.0  0.15828  0.40613  0.42118  1.0000
  H   H220      1.0  0.13714  0.39690  0.40310  1.0000
  C   C396      1.0  0.17071  0.44172  0.34955  1.0000
  H   H221      1.0  0.17618  0.42883  0.37119  1.0000
  C   C397      1.0  0.88957  0.58437  0.38592  1.0000
  C   C398      1.0  0.90209  0.58953  0.37602  1.0000
  H   H222      1.0  0.88621  0.58115  0.44859  1.0000
  H   H223      1.0  0.90748  0.58981  0.43199  1.0000
  C   C399      1.0  0.84396  0.56479  0.34158  1.0000
  C   C400      1.0  0.84913  0.58488  0.38377  1.0000
  C   C401      1.0  0.86160  0.59039  0.37357  1.0000
  H   H224      1.0  0.84385  0.59582  0.42255  1.0000
  H   H225      1.0  0.86496  0.60524  0.40457  1.0000
  C   C402      1.0  0.83152  0.56000  0.35157  1.0000
  H   H226      1.0  0.82605  0.57283  0.37370  1.0000
  C   C403      1.0  0.40674  0.90976  0.38035  1.0000
  C   C404      1.0  0.39910  0.91066  0.45701  1.0000
  C   C405      1.0  0.38645  0.91542  0.44639  1.0000
  C   C406      1.0  0.38128  0.91972  0.36140  1.0000
  C   C407      1.0  0.36870  0.92587  0.35232  1.0000
  C   C408      1.0  0.36363  0.94608  0.39546  1.0000
  C   C409      1.0  0.35104  0.95132  0.38418  1.0000
  H   H227      1.0  0.34752  0.96588  0.41608  1.0000
  H   H228      1.0  0.38099  0.91604  0.50194  1.0000
  N   N91       1.0  0.37126  0.96113  0.44701  1.0000
  N   N92       1.0  0.40421  0.90689  0.54287  1.0000
  O   O85       1.0  0.36771  0.96232  0.52670  1.0000
  O   O86       1.0  0.40280  0.92474  0.59221  1.0000
  O   O87       1.0  0.37167  0.98177  0.41522  1.0000
  O   O88       1.0  0.39948  0.88918  0.58054  1.0000
  C   C410      1.0  0.41932  0.90752  0.38835  1.0000
  H   H229      1.0  0.42362  0.91784  0.43234  1.0000
  C   C411      1.0  0.59434  0.09315  0.37945  1.0000
  C   C412      1.0  0.60202  0.09176  0.45585  1.0000
  C   C413      1.0  0.61463  0.08668  0.44466  1.0000
  C   C414      1.0  0.61972  0.08250  0.35937  1.0000
  C   C415      1.0  0.63227  0.07611  0.34978  1.0000
  C   C416      1.0  0.63727  0.05574  0.39231  1.0000
  C   C417      1.0  0.64985  0.05040  0.38111  1.0000
  H   H230      1.0  0.65332  0.03573  0.41265  1.0000
  H   H231      1.0  0.62010  0.08573  0.50005  1.0000
  N   N93       1.0  0.62958  0.04067  0.44326  1.0000
  N   N94       1.0  0.59699  0.09534  0.54206  1.0000
  O   O89       1.0  0.63311  0.03926  0.52297  1.0000
  O   O90       1.0  0.59827  0.07726  0.59038  1.0000
  O   O91       1.0  0.62912  0.02010  0.41082  1.0000
  O   O92       1.0  0.60186  0.11277  0.58058  1.0000
  C   C418      1.0  0.58178  0.09559  0.38814  1.0000
  H   H232      1.0  0.57752  0.08536  0.43263  1.0000
  C   C419      1.0  0.01914  0.44864  0.37750  1.0000
  C   C420      1.0  0.01370  0.46012  0.45208  1.0000
  C   C421      1.0  0.00587  0.47980  0.43771  1.0000
  C   C422      1.0  0.00331  0.48821  0.35084  1.0000
  C   C423      1.0  0.99465  0.50672  0.33743  1.0000
  C   C424      1.0  0.99606  0.52953  0.37654  1.0000
  C   C425      1.0  0.98679  0.54680  0.36397  1.0000
  H   H233      1.0  0.98794  0.56314  0.39275  1.0000
  H   H234      1.0  0.00170  0.48756  0.49157  1.0000
  N   N95       1.0  0.00680  0.53483  0.42579  1.0000
  N   N96       1.0  0.01606  0.45172  0.53963  1.0000
  O   O93       1.0  0.00432  0.54040  0.50504  1.0000
  O   O94       1.0  0.00641  0.44503  0.57772  1.0000
  O   O95       1.0  0.01273  0.55150  0.39060  1.0000
  O   O96       1.0  0.02108  0.46740  0.58684  1.0000
  C   C426      1.0  0.02598  0.42812  0.38802  1.0000
  H   H235      1.0  0.02304  0.41589  0.43098  1.0000
  C   C427      1.0  0.49277  0.97672  0.39243  1.0000
  C   C428      1.0  0.48495  0.95724  0.37929  1.0000
  H   H236      1.0  0.49455  0.98223  0.45628  1.0000
  H   H237      1.0  0.48138  0.94895  0.43436  1.0000
  C   C429      1.0  0.52551  0.04193  0.35612  1.0000
  C   C430      1.0  0.52666  0.01917  0.39509  1.0000
  C   C431      1.0  0.51754  0.00188  0.38353  1.0000
  H   H238      1.0  0.53426  0.01478  0.43161  1.0000
  H   H239      1.0  0.51887  0.98546  0.41129  1.0000
  C   C432      1.0  0.53489  0.05842  0.36706  1.0000
  H   H240      1.0  0.54212  0.05405  0.40410  1.0000
