data_image0
_chemical_formula_structural       C2HC3HNH2NO2C2HC3HNH2NO2C7H2NH2NO2C7H2NH2NO2C2HC3HNH2NO2C2HC3HNH2NO2C7H2NH2NO2C7H2NH2NO2C2HC3HNH2NO2C2HC3HNH2NO2C2HC3HNH2NO2C2HC3HNH2NO2C7H2NH2NO2C7H2NH2NO2C2HC3HNH2NO2C2HC3HNH2NO2C7H2NH2NO2C7H2NH2NO2C2HC3HNH2NO2C2HC3HNH2NO2C7H2NH2NO2C7H2NH2NO2C2HC3HNH2NO2C2HC3HNH2NO2CNCNCNCNCNCNCNCNCNCNCNCNCNCNCNCNCNCNCNCNCNCNCNCNCNCNCNCNCNCNCNCNCNCNCNCNCNCNCNCNCNCNCNCNCNCNCNCNC7H2NH2NO2C7H2NH2NO2C2HC3HNH2NO2C2HC3HNH2NO2C7H2NH2NO2C7H2NH2NO2C2HC3HNH2NO2C2HC3HNH2NO2C7H2NH2NO2C7H2NH2NO2C7H2NH2NO2C7H2NH2NO2C2HC3HNH2NO2C2HC3HNH2NO2C7H2NH2NO2C7H2NH2NO2C2HC3HNH2NO2C2HC3HNH2NO2C7H2NH2NO2C7H2NH2NO2C2HC3HNH2NO2C2HC3HNH2NO2C7H2NH2NO2C7H2NH2NO2
_chemical_formula_sum              "C336 H192 N144 O96"
_cell_length_a       66.4741
_cell_length_b       52.1257
_cell_length_c       14.828
_cell_angle_alpha    90
_cell_angle_beta     90
_cell_angle_gamma    90

_space_group_name_H-M_alt    "P 1"
_space_group_IT_number       1

loop_
  _space_group_symop_operation_xyz
  'x, y, z'

loop_
  _atom_site_type_symbol
  _atom_site_label
  _atom_site_symmetry_multiplicity
  _atom_site_fract_x
  _atom_site_fract_y
  _atom_site_fract_z
  _atom_site_occupancy
  C   C1        1.0  0.98749  0.97723  0.31827  1.0000
  C   C2        1.0  0.98859  0.94996  0.32066  1.0000
  H   H1        1.0  0.97624  0.93983  0.30001  1.0000
  C   C3        1.0  0.00557  0.07557  0.34367  1.0000
  C   C4        1.0  0.01798  0.06074  0.28551  1.0000
  C   C5        1.0  0.01722  0.03348  0.28850  1.0000
  H   H2        1.0  0.02601  0.02334  0.24437  1.0000
  N   N1        1.0  0.97022  0.98831  0.28782  1.0000
  H   H3        1.0  0.95883  0.97800  0.26817  1.0000
  H   H4        1.0  0.96889  0.00677  0.28136  1.0000
  N   N2        1.0  0.03033  0.07341  0.22168  1.0000
  O   O1        1.0  0.02537  0.06791  0.14220  1.0000
  O   O2        1.0  0.04858  0.06799  0.23267  1.0000
  C   C6        1.0  0.48748  0.47720  0.31835  1.0000
  C   C7        1.0  0.48859  0.44992  0.32076  1.0000
  H   H5        1.0  0.47623  0.43978  0.30017  1.0000
  C   C8        1.0  0.50556  0.57561  0.34367  1.0000
  C   C9        1.0  0.51801  0.56076  0.28569  1.0000
  C   C10       1.0  0.51725  0.53349  0.28866  1.0000
  H   H6        1.0  0.52607  0.52336  0.24462  1.0000
  N   N3        1.0  0.47021  0.48826  0.28795  1.0000
  H   H7        1.0  0.45881  0.47795  0.26836  1.0000
  H   H8        1.0  0.46888  0.50672  0.28142  1.0000
  N   N4        1.0  0.53040  0.57343  0.22202  1.0000
  O   O3        1.0  0.52549  0.56794  0.14247  1.0000
  O   O4        1.0  0.54864  0.56802  0.23322  1.0000
  C   C11       1.0  0.04213  0.15766  0.33293  1.0000
  C   C12       1.0  0.04342  0.18216  0.29071  1.0000
  C   C13       1.0  0.06176  0.19614  0.29243  1.0000
  C   C14       1.0  0.07923  0.18665  0.33526  1.0000
  C   C15       1.0  0.09688  0.20266  0.33699  1.0000
  C   C16       1.0  0.11226  0.20176  0.27005  1.0000
  C   C17       1.0  0.12886  0.21892  0.27624  1.0000
  H   H9        1.0  0.13960  0.21861  0.22672  1.0000
  H   H10       1.0  0.06226  0.21373  0.26171  1.0000
  N   N5        1.0  0.11142  0.18518  0.19927  1.0000
  H   H11       1.0  0.10034  0.17320  0.19175  1.0000
  H   H12       1.0  0.12191  0.18482  0.15355  1.0000
  N   N6        1.0  0.02660  0.19219  0.24371  1.0000
  O   O5        1.0  0.02129  0.21363  0.27424  1.0000
  O   O6        1.0  0.03018  0.19453  0.16090  1.0000
  C   C18       1.0  0.96914  0.85388  0.33646  1.0000
  C   C19       1.0  0.96764  0.82972  0.29203  1.0000
  C   C20       1.0  0.94928  0.81580  0.29372  1.0000
  C   C21       1.0  0.93199  0.82501  0.33866  1.0000
  C   C22       1.0  0.91433  0.80903  0.34010  1.0000
  C   C23       1.0  0.89909  0.80980  0.27249  1.0000
  C   C24       1.0  0.88253  0.79257  0.27813  1.0000
  H   H13       1.0  0.87189  0.79279  0.22812  1.0000
  H   H14       1.0  0.94863  0.79844  0.26142  1.0000
  N   N7        1.0  0.90002  0.82635  0.20164  1.0000
  H   H15       1.0  0.91105  0.83842  0.19460  1.0000
  H   H16       1.0  0.88961  0.82664  0.15552  1.0000
  N   N8        1.0  0.98426  0.81996  0.24294  1.0000
  O   O7        1.0  0.98964  0.79830  0.27119  1.0000
  O   O8        1.0  0.98039  0.81823  0.16022  1.0000
  C   C25       1.0  0.93306  0.16216  0.31252  1.0000
  C   C26       1.0  0.95140  0.14812  0.31519  1.0000
  H   H17       1.0  0.95197  0.13066  0.28362  1.0000
  C   C27       1.0  0.88091  0.23772  0.34363  1.0000
  C   C28       1.0  0.89629  0.23843  0.27709  1.0000
  C   C29       1.0  0.91266  0.22102  0.28188  1.0000
  H   H18       1.0  0.92359  0.22193  0.23325  1.0000
  N   N9        1.0  0.91692  0.15168  0.26966  1.0000
  H   H19       1.0  0.91771  0.13485  0.24149  1.0000
  H   H20       1.0  0.90408  0.16052  0.26598  1.0000
  N   N10       1.0  0.89481  0.25620  0.20504  1.0000
  O   O9        1.0  0.89355  0.24502  0.13016  1.0000
  O   O10       1.0  0.90957  0.27126  0.20326  1.0000
  C   C30       1.0  0.07840  0.84927  0.31204  1.0000
  C   C31       1.0  0.05999  0.86319  0.31471  1.0000
  H   H21       1.0  0.05945  0.88082  0.28430  1.0000
  C   C32       1.0  0.13064  0.77369  0.34210  1.0000
  C   C33       1.0  0.11529  0.77295  0.27540  1.0000
  C   C34       1.0  0.09890  0.79034  0.28001  1.0000
  H   H22       1.0  0.08800  0.78940  0.23129  1.0000
  N   N11       1.0  0.09459  0.86005  0.27057  1.0000
  H   H23       1.0  0.09381  0.87701  0.24336  1.0000
  H   H24       1.0  0.10747  0.85130  0.26690  1.0000
  N   N12       1.0  0.11682  0.75518  0.20338  1.0000
  O   O11       1.0  0.11811  0.76635  0.12851  1.0000
  O   O12       1.0  0.10208  0.74010  0.20147  1.0000
  C   C35       1.0  0.54207  0.65782  0.33348  1.0000
  C   C36       1.0  0.54333  0.68226  0.29077  1.0000
  C   C37       1.0  0.56159  0.69640  0.29296  1.0000
  C   C38       1.0  0.57900  0.68715  0.33681  1.0000
  C   C39       1.0  0.59662  0.70322  0.33825  1.0000
  C   C40       1.0  0.61172  0.70266  0.27001  1.0000
  C   C41       1.0  0.62836  0.71975  0.27603  1.0000
  H   H25       1.0  0.63894  0.71963  0.22579  1.0000
  H   H26       1.0  0.56207  0.71393  0.26177  1.0000
  N   N13       1.0  0.61061  0.68643  0.19829  1.0000
  H   H27       1.0  0.59952  0.67447  0.19088  1.0000
  H   H28       1.0  0.62093  0.68631  0.15175  1.0000
  N   N14       1.0  0.52656  0.69205  0.24281  1.0000
  O   O13       1.0  0.52104  0.71347  0.27272  1.0000
  O   O14       1.0  0.53031  0.69430  0.16012  1.0000
  C   C42       1.0  0.46920  0.35370  0.33705  1.0000
  C   C43       1.0  0.46774  0.32959  0.29223  1.0000
  C   C44       1.0  0.44946  0.31551  0.29437  1.0000
  C   C45       1.0  0.43222  0.32449  0.34022  1.0000
  C   C46       1.0  0.41458  0.30846  0.34137  1.0000
  C   C47       1.0  0.39961  0.30891  0.27255  1.0000
  C   C48       1.0  0.38301  0.29175  0.27801  1.0000
  H   H29       1.0  0.37253  0.29179  0.22735  1.0000
  H   H30       1.0  0.44883  0.29821  0.26168  1.0000
  N   N15       1.0  0.40080  0.32514  0.20083  1.0000
  H   H31       1.0  0.41184  0.33719  0.19390  1.0000
  H   H32       1.0  0.39055  0.32520  0.15394  1.0000
  N   N16       1.0  0.48431  0.32006  0.24227  1.0000
  O   O15       1.0  0.48988  0.29842  0.26998  1.0000
  O   O16       1.0  0.48028  0.31839  0.15968  1.0000
  C   C49       1.0  0.43322  0.66270  0.31053  1.0000
  C   C50       1.0  0.45149  0.64850  0.31363  1.0000
  H   H33       1.0  0.45203  0.63109  0.28175  1.0000
  C   C51       1.0  0.38110  0.73815  0.34280  1.0000
  C   C52       1.0  0.39624  0.73865  0.27523  1.0000
  C   C53       1.0  0.41264  0.72126  0.27976  1.0000
  H   H34       1.0  0.42338  0.72195  0.23028  1.0000
  N   N17       1.0  0.41711  0.65240  0.26699  1.0000
  H   H35       1.0  0.41786  0.63560  0.23858  1.0000
  H   H36       1.0  0.40431  0.66134  0.26309  1.0000
  N   N18       1.0  0.39442  0.75615  0.20257  1.0000
  O   O17       1.0  0.39288  0.74467  0.12836  1.0000
  O   O18       1.0  0.40916  0.77121  0.19888  1.0000
  C   C54       1.0  0.57823  0.34871  0.30993  1.0000
  C   C55       1.0  0.55991  0.36279  0.31306  1.0000
  H   H37       1.0  0.55938  0.38037  0.28225  1.0000
  C   C56       1.0  0.63045  0.27325  0.34127  1.0000
  C   C57       1.0  0.61537  0.27276  0.27344  1.0000
  C   C58       1.0  0.59895  0.29013  0.27778  1.0000
  H   H38       1.0  0.58825  0.28942  0.22815  1.0000
  N   N19       1.0  0.59440  0.35929  0.26767  1.0000
  H   H39       1.0  0.59365  0.37622  0.24017  1.0000
  H   H40       1.0  0.60724  0.35043  0.26378  1.0000
  N   N20       1.0  0.61726  0.25529  0.20073  1.0000
  O   O19       1.0  0.61886  0.26681  0.12661  1.0000
  O   O20       1.0  0.60254  0.24022  0.19672  1.0000
  C   C59       1.0  0.36740  0.08500  0.29818  1.0000
  C   C60       1.0  0.37514  0.05966  0.30358  1.0000
  H   H41       1.0  0.36923  0.04582  0.26232  1.0000
  C   C61       1.0  0.36121  0.18432  0.34417  1.0000
  C   C62       1.0  0.37544  0.17378  0.28328  1.0000
  C   C63       1.0  0.37971  0.14718  0.28666  1.0000
  H   H42       1.0  0.39001  0.13977  0.24236  1.0000
  N   N21       1.0  0.35191  0.08990  0.24074  1.0000
  H   H43       1.0  0.34598  0.07638  0.20413  1.0000
  H   H44       1.0  0.34611  0.10694  0.23491  1.0000
  N   N22       1.0  0.38453  0.18979  0.21771  1.0000
  O   O21       1.0  0.38010  0.18278  0.13906  1.0000
  O   O22       1.0  0.40335  0.19004  0.22555  1.0000
  C   C64       1.0  0.64431  0.92647  0.30125  1.0000
  C   C65       1.0  0.63664  0.95183  0.30723  1.0000
  H   H45       1.0  0.64265  0.96572  0.26645  1.0000
  C   C66       1.0  0.65031  0.82707  0.34441  1.0000
  C   C67       1.0  0.63607  0.83773  0.28389  1.0000
  C   C68       1.0  0.63180  0.86433  0.28793  1.0000
  H   H46       1.0  0.62149  0.87184  0.24389  1.0000
  N   N23       1.0  0.65987  0.92163  0.24405  1.0000
  H   H47       1.0  0.66588  0.93522  0.20800  1.0000
  H   H48       1.0  0.66562  0.90458  0.23779  1.0000
  N   N24       1.0  0.62694  0.82187  0.21798  1.0000
  O   O23       1.0  0.63136  0.82901  0.13948  1.0000
  O   O24       1.0  0.60813  0.82161  0.22594  1.0000
  C   C69       1.0  0.62067  0.05284  0.32753  1.0000
  C   C70       1.0  0.61266  0.07207  0.26967  1.0000
  C   C71       1.0  0.62033  0.09734  0.27380  1.0000
  C   C72       1.0  0.63570  0.10418  0.33480  1.0000
  C   C73       1.0  0.64159  0.13048  0.33749  1.0000
  C   C74       1.0  0.65575  0.14109  0.27600  1.0000
  C   C75       1.0  0.66009  0.16767  0.28126  1.0000
  H   H49       1.0  0.67026  0.17535  0.23692  1.0000
  H   H50       1.0  0.61421  0.11104  0.23252  1.0000
  N   N25       1.0  0.66528  0.12669  0.21243  1.0000
  H   H51       1.0  0.66291  0.10837  0.20654  1.0000
  H   H52       1.0  0.67491  0.13430  0.17084  1.0000
  N   N26       1.0  0.59721  0.06588  0.20733  1.0000
  O   O25       1.0  0.58154  0.07881  0.22111  1.0000
  O   O26       1.0  0.60278  0.06933  0.12727  1.0000
  C   C76       1.0  0.39122  0.95841  0.32977  1.0000
  C   C77       1.0  0.39940  0.93900  0.27311  1.0000
  C   C78       1.0  0.39163  0.91378  0.27725  1.0000
  C   C79       1.0  0.37594  0.90718  0.33688  1.0000
  C   C80       1.0  0.36995  0.88091  0.33962  1.0000
  C   C81       1.0  0.35577  0.87036  0.27809  1.0000
  C   C82       1.0  0.35140  0.84380  0.28316  1.0000
  H   H53       1.0  0.34123  0.83615  0.23872  1.0000
  H   H54       1.0  0.39788  0.89995  0.23690  1.0000
  N   N27       1.0  0.34627  0.88482  0.21459  1.0000
  H   H55       1.0  0.34869  0.90313  0.20876  1.0000
  H   H56       1.0  0.33664  0.87726  0.17293  1.0000
  N   N28       1.0  0.41517  0.94488  0.21200  1.0000
  O   O27       1.0  0.43079  0.93210  0.22843  1.0000
  O   O28       1.0  0.41006  0.94108  0.13151  1.0000
  C   C83       1.0  0.86769  0.58531  0.30061  1.0000
  C   C84       1.0  0.87534  0.55991  0.30513  1.0000
  H   H57       1.0  0.86946  0.54624  0.26303  1.0000
  C   C85       1.0  0.86197  0.68451  0.34947  1.0000
  C   C86       1.0  0.87537  0.67371  0.28551  1.0000
  C   C87       1.0  0.87950  0.64706  0.28859  1.0000
  H   H58       1.0  0.88922  0.63945  0.24213  1.0000
  N   N29       1.0  0.85228  0.59048  0.24297  1.0000
  H   H59       1.0  0.84637  0.57711  0.20561  1.0000
  H   H60       1.0  0.84649  0.60754  0.23795  1.0000
  N   N30       1.0  0.88372  0.68948  0.21730  1.0000
  O   O29       1.0  0.87827  0.68234  0.14011  1.0000
  O   O30       1.0  0.90261  0.68955  0.22038  1.0000
  C   C88       1.0  0.14404  0.42619  0.30353  1.0000
  C   C89       1.0  0.13645  0.45161  0.30868  1.0000
  H   H61       1.0  0.14242  0.46533  0.26709  1.0000
  C   C90       1.0  0.14954  0.32690  0.34961  1.0000
  C   C91       1.0  0.13615  0.33783  0.28589  1.0000
  C   C92       1.0  0.13204  0.36448  0.28961  1.0000
  H   H62       1.0  0.12233  0.37220  0.24333  1.0000
  N   N31       1.0  0.15949  0.42109  0.24611  1.0000
  H   H63       1.0  0.16550  0.43452  0.20933  1.0000
  H   H64       1.0  0.16523  0.40401  0.24064  1.0000
  N   N32       1.0  0.12779  0.32221  0.21729  1.0000
  O   O31       1.0  0.13326  0.32948  0.14027  1.0000
  O   O32       1.0  0.10891  0.32215  0.22032  1.0000
  C   C93       1.0  0.12058  0.55278  0.32579  1.0000
  C   C94       1.0  0.11253  0.57179  0.26716  1.0000
  C   C95       1.0  0.12013  0.59711  0.27043  1.0000
  C   C96       1.0  0.13545  0.60421  0.33130  1.0000
  C   C97       1.0  0.14119  0.63057  0.33329  1.0000
  C   C98       1.0  0.15464  0.64143  0.26915  1.0000
  C   C99       1.0  0.15883  0.66805  0.27396  1.0000
  H   H65       1.0  0.16858  0.67591  0.22810  1.0000
  H   H66       1.0  0.11396  0.61067  0.22868  1.0000
  N   N33       1.0  0.16370  0.62721  0.20373  1.0000
  H   H67       1.0  0.16149  0.60885  0.19825  1.0000
  H   H68       1.0  0.17287  0.63499  0.16048  1.0000
  N   N34       1.0  0.09711  0.56537  0.20503  1.0000
  O   O33       1.0  0.08139  0.57823  0.21844  1.0000
  O   O34       1.0  0.10266  0.56864  0.12486  1.0000
  C   C100      1.0  0.89129  0.45849  0.32798  1.0000
  C   C101      1.0  0.89947  0.43932  0.27026  1.0000
  C   C102      1.0  0.89178  0.41406  0.27349  1.0000
  C   C103      1.0  0.87618  0.40716  0.33321  1.0000
  C   C104      1.0  0.87036  0.38083  0.33523  1.0000
  C   C105      1.0  0.85692  0.37003  0.27097  1.0000
  C   C106      1.0  0.85270  0.34342  0.27559  1.0000
  H   H69       1.0  0.84297  0.33559  0.22958  1.0000
  H   H70       1.0  0.89805  0.40039  0.23248  1.0000
  N   N35       1.0  0.84790  0.38429  0.20552  1.0000
  H   H71       1.0  0.85016  0.40264  0.20010  1.0000
  H   H72       1.0  0.83875  0.37655  0.16214  1.0000
  N   N36       1.0  0.91517  0.44548  0.20914  1.0000
  O   O35       1.0  0.93084  0.43273  0.22480  1.0000
  O   O36       1.0  0.91000  0.44193  0.12859  1.0000
  C   C107      1.0  0.52717  0.98298  0.31586  1.0000
  C   C108      1.0  0.54839  0.98440  0.31729  1.0000
  H   H73       1.0  0.55638  0.96921  0.29202  1.0000
  C   C109      1.0  0.45244  0.00536  0.34603  1.0000
  C   C110      1.0  0.46351  0.01736  0.27629  1.0000
  C   C111      1.0  0.48472  0.01664  0.27989  1.0000
  H   H74       1.0  0.49277  0.02501  0.22881  1.0000
  N   N37       1.0  0.51822  0.96151  0.28228  1.0000
  H   H75       1.0  0.52614  0.94720  0.25953  1.0000
  H   H76       1.0  0.50368  0.95975  0.27924  1.0000
  N   N38       1.0  0.45327  0.02888  0.20291  1.0000
  O   O37       1.0  0.45745  0.01796  0.12971  1.0000
  O   O38       1.0  0.45747  0.05230  0.19613  1.0000
  C   C112      1.0  0.02715  0.48294  0.31621  1.0000
  C   C113      1.0  0.04837  0.48435  0.31765  1.0000
  H   H77       1.0  0.05637  0.46914  0.29257  1.0000
  C   C114      1.0  0.95247  0.50537  0.34618  1.0000
  C   C115      1.0  0.96352  0.51705  0.27573  1.0000
  C   C116      1.0  0.98473  0.51634  0.27933  1.0000
  H   H78       1.0  0.99277  0.52448  0.22778  1.0000
  N   N39       1.0  0.01819  0.46144  0.28292  1.0000
  H   H79       1.0  0.02611  0.44710  0.26037  1.0000
  H   H80       1.0  0.00366  0.45968  0.27997  1.0000
  N   N40       1.0  0.95326  0.52827  0.20184  1.0000
  O   O39       1.0  0.95742  0.51704  0.12919  1.0000
  O   O40       1.0  0.95747  0.55166  0.19382  1.0000
  C   C117      1.0  0.20220  0.26437  0.33167  1.0000
  C   C118      1.0  0.21585  0.28215  0.29155  1.0000
  C   C119      1.0  0.23685  0.27762  0.29491  1.0000
  C   C120      1.0  0.24504  0.25573  0.33704  1.0000
  C   C121      1.0  0.26649  0.25259  0.33499  1.0000
  C   C122      1.0  0.27649  0.23908  0.26461  1.0000
  C   C123      1.0  0.29775  0.23686  0.26745  1.0000
  H   H81       1.0  0.30487  0.22676  0.21746  1.0000
  H   H82       1.0  0.24633  0.29062  0.26518  1.0000
  N   N41       1.0  0.26638  0.22805  0.19478  1.0000
  H   H83       1.0  0.25183  0.22904  0.18955  1.0000
  H   H84       1.0  0.27346  0.21892  0.14711  1.0000
  N   N42       1.0  0.20855  0.30408  0.24537  1.0000
  O   O41       1.0  0.21478  0.32458  0.28027  1.0000
  O   O42       1.0  0.21321  0.30384  0.16322  1.0000
  C   C124      1.0  0.80921  0.74693  0.33231  1.0000
  C   C125      1.0  0.79559  0.72915  0.29199  1.0000
  C   C126      1.0  0.77458  0.73366  0.29512  1.0000
  C   C127      1.0  0.76636  0.75554  0.33721  1.0000
  C   C128      1.0  0.74491  0.75866  0.33490  1.0000
  C   C129      1.0  0.73494  0.77207  0.26419  1.0000
  C   C130      1.0  0.71367  0.77429  0.26680  1.0000
  H   H85       1.0  0.70658  0.78432  0.21660  1.0000
  H   H86       1.0  0.76513  0.72065  0.26526  1.0000
  N   N43       1.0  0.74507  0.78302  0.19428  1.0000
  H   H87       1.0  0.75962  0.78203  0.18922  1.0000
  H   H88       1.0  0.73801  0.79208  0.14640  1.0000
  N   N44       1.0  0.80292  0.70723  0.24585  1.0000
  O   O43       1.0  0.79668  0.68672  0.28066  1.0000
  O   O44       1.0  0.79830  0.70747  0.16366  1.0000
  C   C131      1.0  0.77989  0.23759  0.31381  1.0000
  C   C132      1.0  0.80095  0.24229  0.31744  1.0000
  H   H89       1.0  0.81047  0.22936  0.28772  1.0000
  C   C133      1.0  0.70196  0.24799  0.35270  1.0000
  C   C134      1.0  0.71196  0.26166  0.28322  1.0000
  C   C135      1.0  0.73325  0.26388  0.28515  1.0000
  H   H90       1.0  0.74028  0.27357  0.23396  1.0000
  N   N45       1.0  0.77319  0.21581  0.27304  1.0000
  H   H91       1.0  0.78251  0.20349  0.24683  1.0000
  H   H92       1.0  0.75895  0.21184  0.26842  1.0000
  N   N46       1.0  0.70056  0.27163  0.21059  1.0000
  O   O45       1.0  0.70546  0.26136  0.13710  1.0000
  O   O46       1.0  0.70269  0.29549  0.20360  1.0000
  C   C136      1.0  0.23167  0.77380  0.31353  1.0000
  C   C137      1.0  0.21060  0.76911  0.31697  1.0000
  H   H93       1.0  0.20110  0.78202  0.28707  1.0000
  C   C138      1.0  0.30957  0.76337  0.35330  1.0000
  C   C139      1.0  0.29960  0.74978  0.28355  1.0000
  C   C140      1.0  0.27831  0.74756  0.28526  1.0000
  H   H94       1.0  0.27130  0.73794  0.23389  1.0000
  N   N47       1.0  0.23839  0.79556  0.27277  1.0000
  H   H95       1.0  0.22909  0.80789  0.24644  1.0000
  H   H96       1.0  0.25264  0.79954  0.26830  1.0000
  N   N48       1.0  0.31103  0.73988  0.21090  1.0000
  O   O47       1.0  0.30617  0.75024  0.13750  1.0000
  O   O48       1.0  0.30890  0.71603  0.20358  1.0000
  C   C141      1.0  0.98760  0.14317  0.35153  1.0000
  N   N49       1.0  0.98812  0.11694  0.35052  1.0000
  C   C142      1.0  0.00562  0.10325  0.34383  1.0000
  N   N50       1.0  0.02312  0.11696  0.33800  1.0000
  C   C143      1.0  0.02366  0.14318  0.33757  1.0000
  N   N51       1.0  0.00563  0.15542  0.34462  1.0000
  C   C144      1.0  0.02375  0.86789  0.35067  1.0000
  N   N52       1.0  0.02327  0.89409  0.35034  1.0000
  C   C145      1.0  0.00593  0.90826  0.34715  1.0000
  N   N53       1.0  0.98839  0.89448  0.34272  1.0000
  C   C146      1.0  0.98766  0.86826  0.34083  1.0000
  N   N54       1.0  0.00563  0.85583  0.34543  1.0000
  C   C147      1.0  0.48759  0.64323  0.35125  1.0000
  N   N55       1.0  0.48810  0.61700  0.35022  1.0000
  C   C148      1.0  0.50561  0.60330  0.34383  1.0000
  N   N56       1.0  0.52312  0.61702  0.33828  1.0000
  C   C149      1.0  0.52366  0.64324  0.33782  1.0000
  N   N57       1.0  0.50562  0.65547  0.34460  1.0000
  C   C150      1.0  0.52376  0.36782  0.35042  1.0000
  N   N58       1.0  0.52328  0.39402  0.35003  1.0000
  C   C151      1.0  0.50594  0.40820  0.34712  1.0000
  N   N59       1.0  0.48839  0.39441  0.34300  1.0000
  C   C152      1.0  0.48767  0.36818  0.34110  1.0000
  N   N60       1.0  0.50564  0.35576  0.34546  1.0000
  C   C153      1.0  0.40052  0.98296  0.33736  1.0000
  N   N61       1.0  0.39050  0.00584  0.34495  1.0000
  C   C154      1.0  0.40071  0.02857  0.35305  1.0000
  N   N62       1.0  0.42112  0.02780  0.35143  1.0000
  C   C155      1.0  0.43135  0.00552  0.34591  1.0000
  N   N63       1.0  0.42093  0.98339  0.33994  1.0000
  C   C156      1.0  0.61134  0.02833  0.33569  1.0000
  N   N64       1.0  0.62132  0.00553  0.34545  1.0000
  C   C157      1.0  0.61108  0.98295  0.35647  1.0000
  N   N65       1.0  0.59068  0.98399  0.35647  1.0000
  C   C158      1.0  0.58018  0.00611  0.34891  1.0000
  N   N66       1.0  0.59094  0.02792  0.33880  1.0000
  C   C159      1.0  0.90058  0.48302  0.33658  1.0000
  N   N67       1.0  0.89055  0.50587  0.34495  1.0000
  C   C160      1.0  0.90076  0.52856  0.35392  1.0000
  N   N68       1.0  0.92117  0.52780  0.35237  1.0000
  C   C161      1.0  0.93139  0.50553  0.34609  1.0000
  N   N69       1.0  0.92098  0.48342  0.33921  1.0000
  C   C162      1.0  0.11128  0.52829  0.33501  1.0000
  N   N70       1.0  0.12128  0.50552  0.34549  1.0000
  C   C163      1.0  0.11103  0.48298  0.35737  1.0000
  N   N71       1.0  0.09064  0.48400  0.35734  1.0000
  C   C164      1.0  0.08014  0.50610  0.34902  1.0000
  N   N72       1.0  0.09089  0.52788  0.33814  1.0000
  C   C165      1.0  0.14624  0.25625  0.34324  1.0000
  N   N73       1.0  0.16632  0.25043  0.33737  1.0000
  C   C166      1.0  0.18088  0.26909  0.33634  1.0000
  N   N74       1.0  0.17450  0.29380  0.34267  1.0000
  C   C167      1.0  0.15487  0.30054  0.34711  1.0000
  N   N75       1.0  0.14095  0.28148  0.34694  1.0000
  C   C168      1.0  0.86514  0.75518  0.34458  1.0000
  N   N76       1.0  0.84505  0.76095  0.33862  1.0000
  C   C169      1.0  0.83053  0.74224  0.33712  1.0000
  N   N77       1.0  0.83696  0.71754  0.34302  1.0000
  C   C170      1.0  0.85661  0.71086  0.34752  1.0000
  N   N78       1.0  0.87049  0.72996  0.34787  1.0000
  C   C171      1.0  0.86520  0.25653  0.34597  1.0000
  N   N79       1.0  0.84513  0.25069  0.35177  1.0000
  C   C172      1.0  0.83056  0.26935  0.35281  1.0000
  N   N80       1.0  0.83693  0.29406  0.34663  1.0000
  C   C173      1.0  0.85656  0.30082  0.34228  1.0000
  N   N81       1.0  0.87049  0.28176  0.34239  1.0000
  C   C174      1.0  0.14634  0.75487  0.34472  1.0000
  N   N82       1.0  0.16641  0.76071  0.35082  1.0000
  C   C175      1.0  0.18097  0.74206  0.35208  1.0000
  N   N83       1.0  0.17461  0.71734  0.34573  1.0000
  C   C176      1.0  0.15498  0.71059  0.34106  1.0000
  N   N84       1.0  0.14106  0.72964  0.34102  1.0000
  C   C177      1.0  0.64617  0.75646  0.34421  1.0000
  N   N85       1.0  0.66613  0.75006  0.34081  1.0000
  C   C178      1.0  0.68081  0.76846  0.33855  1.0000
  N   N86       1.0  0.67508  0.79347  0.34000  1.0000
  C   C179      1.0  0.65547  0.80061  0.34287  1.0000
  N   N87       1.0  0.64126  0.78184  0.34488  1.0000
  C   C180      1.0  0.36521  0.25494  0.34555  1.0000
  N   N88       1.0  0.34524  0.26128  0.34207  1.0000
  C   C181      1.0  0.33060  0.24284  0.33927  1.0000
  N   N89       1.0  0.33639  0.21784  0.34025  1.0000
  C   C182      1.0  0.35602  0.21077  0.34320  1.0000
  N   N90       1.0  0.37018  0.22958  0.34575  1.0000
  C   C183      1.0  0.36525  0.75672  0.34505  1.0000
  N   N91       1.0  0.34530  0.75031  0.34838  1.0000
  C   C184      1.0  0.33062  0.76870  0.35071  1.0000
  N   N92       1.0  0.33634  0.79371  0.34944  1.0000
  C   C185      1.0  0.35595  0.80086  0.34663  1.0000
  N   N93       1.0  0.37017  0.78211  0.34456  1.0000
  C   C186      1.0  0.64629  0.25467  0.34379  1.0000
  N   N94       1.0  0.66624  0.26107  0.34740  1.0000
  C   C187      1.0  0.68092  0.24268  0.34988  1.0000
  N   N95       1.0  0.67519  0.21766  0.34843  1.0000
  C   C188      1.0  0.65558  0.21053  0.34534  1.0000
  N   N96       1.0  0.64137  0.22929  0.34313  1.0000
  C   C189      1.0  0.00602  0.93618  0.34766  1.0000
  C   C190      1.0  0.02295  0.95130  0.37369  1.0000
  C   C191      1.0  0.02189  0.97857  0.37247  1.0000
  C   C192      1.0  0.00441  0.99209  0.34595  1.0000
  C   C193      1.0  0.00452  0.01991  0.34858  1.0000
  C   C194      1.0  0.99233  0.03469  0.40840  1.0000
  C   C195      1.0  0.99283  0.06197  0.40355  1.0000
  H   H97       1.0  0.98403  0.07226  0.44721  1.0000
  H   H98       1.0  0.03423  0.98879  0.39298  1.0000
  N   N97       1.0  0.98036  0.02356  0.47180  1.0000
  H   H99       1.0  0.98005  0.00510  0.48073  1.0000
  H   H100      1.0  0.97232  0.03383  0.51307  1.0000
  N   N98       1.0  0.04086  0.93923  0.40331  1.0000
  O   O49       1.0  0.05559  0.94472  0.35380  1.0000
  O   O50       1.0  0.04505  0.94488  0.48354  1.0000
  C   C196      1.0  0.50603  0.43612  0.34762  1.0000
  C   C197      1.0  0.52295  0.45127  0.37353  1.0000
  C   C198      1.0  0.52189  0.47854  0.37232  1.0000
  C   C199      1.0  0.50441  0.49207  0.34592  1.0000
  C   C200      1.0  0.50452  0.51991  0.34855  1.0000
  C   C201      1.0  0.49230  0.53471  0.40823  1.0000
  C   C202      1.0  0.49279  0.56198  0.40334  1.0000
  H   H101      1.0  0.48397  0.57228  0.44695  1.0000
  H   H102      1.0  0.53424  0.48876  0.39275  1.0000
  N   N99       1.0  0.48030  0.52358  0.47153  1.0000
  H   H103      1.0  0.48000  0.50513  0.48053  1.0000
  H   H104      1.0  0.47224  0.53385  0.51272  1.0000
  N   N100      1.0  0.54088  0.43919  0.40301  1.0000
  O   O51       1.0  0.55559  0.44469  0.35340  1.0000
  O   O52       1.0  0.54509  0.44484  0.48321  1.0000
  C   C203      1.0  0.07825  0.16200  0.37641  1.0000
  C   C204      1.0  0.05987  0.14801  0.37376  1.0000
  H   H105      1.0  0.05929  0.13053  0.40516  1.0000
  C   C205      1.0  0.13053  0.23744  0.34561  1.0000
  C   C206      1.0  0.11517  0.23813  0.41228  1.0000
  C   C207      1.0  0.09877  0.22076  0.40744  1.0000
  H   H106      1.0  0.08787  0.22166  0.45620  1.0000
  N   N101      1.0  0.09437  0.15144  0.41907  1.0000
  H   H107      1.0  0.09357  0.13460  0.44712  1.0000
  H   H108      1.0  0.10724  0.16024  0.42273  1.0000
  N   N102      1.0  0.11671  0.25583  0.48450  1.0000
  O   O53       1.0  0.11798  0.24459  0.55926  1.0000
  O   O54       1.0  0.10198  0.27093  0.48656  1.0000
  C   C208      1.0  0.93318  0.84933  0.38207  1.0000
  C   C209      1.0  0.95157  0.86328  0.37943  1.0000
  H   H109      1.0  0.95231  0.88053  0.41237  1.0000
  C   C210      1.0  0.88079  0.77406  0.34748  1.0000
  C   C211      1.0  0.89601  0.77347  0.41478  1.0000
  C   C212      1.0  0.91235  0.79094  0.41059  1.0000
  H   H110      1.0  0.92317  0.79010  0.45970  1.0000
  N   N103      1.0  0.91721  0.85962  0.42670  1.0000
  H   H111      1.0  0.91814  0.87626  0.45620  1.0000
  H   H112      1.0  0.90433  0.85086  0.43024  1.0000
  N   N104      1.0  0.89440  0.75574  0.48689  1.0000
  O   O55       1.0  0.89296  0.76696  0.56162  1.0000
  O   O56       1.0  0.90919  0.74074  0.48943  1.0000
  C   C213      1.0  0.96915  0.15769  0.35626  1.0000
  C   C214      1.0  0.96789  0.18217  0.39862  1.0000
  C   C215      1.0  0.94958  0.19620  0.39687  1.0000
  C   C216      1.0  0.93211  0.18679  0.35386  1.0000
  C   C217      1.0  0.91449  0.20284  0.35215  1.0000
  C   C218      1.0  0.89907  0.20191  0.41892  1.0000
  C   C219      1.0  0.88250  0.21912  0.41276  1.0000
  H   H113      1.0  0.87173  0.21878  0.46215  1.0000
  H   H114      1.0  0.94909  0.21378  0.42769  1.0000
  N   N105      1.0  0.89985  0.18526  0.48949  1.0000
  H   H115      1.0  0.91090  0.17324  0.49698  1.0000
  H   H116      1.0  0.88933  0.18488  0.53509  1.0000
  N   N106      1.0  0.98471  0.19215  0.44571  1.0000
  O   O57       1.0  0.99007  0.21357  0.41525  1.0000
  O   O58       1.0  0.98113  0.19448  0.52851  1.0000
  C   C220      1.0  0.04219  0.85333  0.35439  1.0000
  C   C221      1.0  0.04346  0.82866  0.39548  1.0000
  C   C222      1.0  0.06182  0.81475  0.39363  1.0000
  C   C223      1.0  0.07934  0.82446  0.35196  1.0000
  C   C224      1.0  0.09702  0.80851  0.35026  1.0000
  C   C225      1.0  0.11240  0.80946  0.41720  1.0000
  C   C226      1.0  0.12900  0.79230  0.41119  1.0000
  H   H117      1.0  0.13972  0.79263  0.46078  1.0000
  H   H118      1.0  0.06231  0.79704  0.42355  1.0000
  N   N107      1.0  0.11154  0.82608  0.48786  1.0000
  H   H119      1.0  0.10046  0.83806  0.49530  1.0000
  H   H120      1.0  0.12204  0.82647  0.53360  1.0000
  N   N108      1.0  0.02662  0.81838  0.44161  1.0000
  O   O59       1.0  0.02138  0.79705  0.40994  1.0000
  O   O60       1.0  0.03009  0.81575  0.52440  1.0000
  C   C227      1.0  0.57807  0.66255  0.37840  1.0000
  C   C228      1.0  0.55978  0.64840  0.37530  1.0000
  H   H121      1.0  0.55922  0.63096  0.40702  1.0000
  C   C229      1.0  0.63032  0.73789  0.34646  1.0000
  C   C230      1.0  0.61521  0.73836  0.41415  1.0000
  C   C231      1.0  0.59878  0.72102  0.40957  1.0000
  H   H122      1.0  0.58806  0.72169  0.45916  1.0000
  N   N109      1.0  0.59418  0.65218  0.42175  1.0000
  H   H123      1.0  0.59341  0.63536  0.45003  1.0000
  H   H124      1.0  0.60700  0.66108  0.42565  1.0000
  N   N110      1.0  0.61708  0.75580  0.48698  1.0000
  O   O61       1.0  0.61863  0.74425  0.56106  1.0000
  O   O62       1.0  0.60236  0.77089  0.49094  1.0000
  C   C232      1.0  0.43335  0.34878  0.38397  1.0000
  C   C233      1.0  0.45167  0.36289  0.38089  1.0000
  H   H125      1.0  0.45239  0.38010  0.41407  1.0000
  C   C234      1.0  0.38100  0.27359  0.34836  1.0000
  C   C235      1.0  0.39599  0.27320  0.41661  1.0000
  C   C236      1.0  0.41235  0.29066  0.41266  1.0000
  H   H126      1.0  0.42300  0.29002  0.46256  1.0000
  N   N111      1.0  0.41740  0.35890  0.42918  1.0000
  H   H127      1.0  0.41830  0.37551  0.45885  1.0000
  H   H128      1.0  0.40457  0.35003  0.43296  1.0000
  N   N112      1.0  0.39406  0.25572  0.48927  1.0000
  O   O63       1.0  0.39235  0.26723  0.56336  1.0000
  O   O64       1.0  0.40882  0.24072  0.49362  1.0000
  C   C237      1.0  0.46919  0.65785  0.35568  1.0000
  C   C238      1.0  0.46797  0.68227  0.39853  1.0000
  C   C239      1.0  0.44974  0.69645  0.39633  1.0000
  C   C240      1.0  0.43232  0.68728  0.35230  1.0000
  C   C241      1.0  0.41473  0.70338  0.35089  1.0000
  C   C242      1.0  0.39959  0.70279  0.41897  1.0000
  C   C243      1.0  0.38299  0.71992  0.41301  1.0000
  H   H129      1.0  0.37238  0.71977  0.46312  1.0000
  H   H130      1.0  0.44927  0.71397  0.42761  1.0000
  N   N113      1.0  0.40064  0.68648  0.49050  1.0000
  H   H131      1.0  0.41172  0.67449  0.49787  1.0000
  H   H132      1.0  0.39030  0.68634  0.53693  1.0000
  N   N114      1.0  0.48474  0.69200  0.44660  1.0000
  O   O65       1.0  0.49031  0.71342  0.41676  1.0000
  O   O66       1.0  0.48098  0.69425  0.52928  1.0000
  C   C244      1.0  0.54215  0.35316  0.35384  1.0000
  C   C245      1.0  0.54339  0.32857  0.39552  1.0000
  C   C246      1.0  0.56167  0.31449  0.39319  1.0000
  C   C247      1.0  0.57914  0.32395  0.35039  1.0000
  C   C248      1.0  0.59678  0.30795  0.34900  1.0000
  C   C249      1.0  0.61186  0.30854  0.41736  1.0000
  C   C250      1.0  0.62849  0.29145  0.41154  1.0000
  H   H133      1.0  0.63904  0.29155  0.46193  1.0000
  H   H134      1.0  0.56214  0.29686  0.42366  1.0000
  N   N115      1.0  0.61071  0.32477  0.48906  1.0000
  H   H135      1.0  0.59961  0.33672  0.49637  1.0000
  H   H136      1.0  0.62101  0.32490  0.53570  1.0000
  N   N116      1.0  0.52660  0.31854  0.44273  1.0000
  O   O67       1.0  0.52115  0.29720  0.41180  1.0000
  O   O68       1.0  0.53026  0.31603  0.52541  1.0000
  C   C251      1.0  0.39158  0.05327  0.35987  1.0000
  C   C252      1.0  0.39995  0.07284  0.41535  1.0000
  C   C253      1.0  0.39219  0.09805  0.41088  1.0000
  C   C254      1.0  0.37630  0.10453  0.35215  1.0000
  C   C255      1.0  0.37022  0.13077  0.34951  1.0000
  C   C256      1.0  0.35604  0.14122  0.41123  1.0000
  C   C257      1.0  0.35161  0.16778  0.40640  1.0000
  H   H137      1.0  0.34142  0.17535  0.45094  1.0000
  H   H138      1.0  0.39856  0.11197  0.45049  1.0000
  N   N117      1.0  0.34661  0.12670  0.47476  1.0000
  H   H139      1.0  0.34909  0.10840  0.48050  1.0000
  H   H140      1.0  0.33699  0.13420  0.51657  1.0000
  N   N118      1.0  0.41587  0.06712  0.47583  1.0000
  O   O69       1.0  0.43146  0.07981  0.45808  1.0000
  O   O70       1.0  0.41098  0.07115  0.55646  1.0000
  C   C258      1.0  0.62013  0.95818  0.36319  1.0000
  C   C259      1.0  0.61162  0.93850  0.41777  1.0000
  C   C260      1.0  0.61932  0.91326  0.41277  1.0000
  C   C261      1.0  0.63529  0.90686  0.35435  1.0000
  C   C262      1.0  0.64132  0.88060  0.35114  1.0000
  C   C263      1.0  0.65553  0.87003  0.41243  1.0000
  C   C264      1.0  0.65996  0.84349  0.40690  1.0000
  H   H141      1.0  0.67015  0.83581  0.45123  1.0000
  H   H142      1.0  0.61285  0.89927  0.45176  1.0000
  N   N119      1.0  0.66500  0.88443  0.47622  1.0000
  H   H143      1.0  0.66252  0.90272  0.48247  1.0000
  H   H144      1.0  0.67465  0.87684  0.51773  1.0000
  N   N120      1.0  0.59561  0.94410  0.47788  1.0000
  O   O71       1.0  0.58002  0.93152  0.45910  1.0000
  O   O72       1.0  0.60034  0.93982  0.55854  1.0000
  C   C265      1.0  0.64422  0.08496  0.39131  1.0000
  C   C266      1.0  0.63661  0.05956  0.38610  1.0000
  H   H145      1.0  0.64218  0.04596  0.42927  1.0000
  C   C267      1.0  0.65043  0.18407  0.34380  1.0000
  C   C268      1.0  0.63624  0.17338  0.40448  1.0000
  C   C269      1.0  0.63205  0.14675  0.40064  1.0000
  H   H146      1.0  0.62178  0.13922  0.44484  1.0000
  N   N121      1.0  0.65921  0.09020  0.45098  1.0000
  H   H147      1.0  0.66489  0.07688  0.48925  1.0000
  H   H148      1.0  0.66495  0.10728  0.45666  1.0000
  N   N122      1.0  0.62709  0.18924  0.47033  1.0000
  O   O73       1.0  0.63154  0.18215  0.54886  1.0000
  O   O74       1.0  0.60828  0.18942  0.46247  1.0000
  C   C270      1.0  0.36722  0.92657  0.39202  1.0000
  C   C271      1.0  0.37495  0.95192  0.38686  1.0000
  H   H149      1.0  0.36922  0.96566  0.42906  1.0000
  C   C272      1.0  0.36108  0.82733  0.34540  1.0000
  C   C273      1.0  0.37531  0.83796  0.40611  1.0000
  C   C274      1.0  0.37950  0.86458  0.40253  1.0000
  H   H150      1.0  0.38981  0.87206  0.44670  1.0000
  N   N123      1.0  0.35193  0.92154  0.45038  1.0000
  H   H151      1.0  0.34612  0.93498  0.48775  1.0000
  H   H152      1.0  0.34613  0.90450  0.45602  1.0000
  N   N124      1.0  0.38448  0.82203  0.47169  1.0000
  O   O75       1.0  0.38007  0.82905  0.55034  1.0000
  O   O76       1.0  0.40329  0.82185  0.46364  1.0000
  C   C275      1.0  0.89166  0.55325  0.36169  1.0000
  C   C276      1.0  0.90000  0.57256  0.41834  1.0000
  C   C277      1.0  0.89231  0.59782  0.41477  1.0000
  C   C278      1.0  0.87653  0.60459  0.35582  1.0000
  C   C279      1.0  0.87061  0.63089  0.35390  1.0000
  C   C280      1.0  0.85722  0.64162  0.41852  1.0000
  C   C281      1.0  0.85293  0.66822  0.41411  1.0000
  H   H153      1.0  0.84322  0.67599  0.46034  1.0000
  H   H154      1.0  0.89868  0.61157  0.45511  1.0000
  N   N125      1.0  0.84832  0.62730  0.48415  1.0000
  H   H155      1.0  0.85064  0.60896  0.48947  1.0000
  H   H156      1.0  0.83920  0.63499  0.52779  1.0000
  N   N126      1.0  0.91583  0.56656  0.47895  1.0000
  O   O77       1.0  0.93147  0.57925  0.46212  1.0000
  O   O78       1.0  0.91086  0.57034  0.55962  1.0000
  C   C282      1.0  0.12006  0.45822  0.36494  1.0000
  C   C283      1.0  0.11158  0.43878  0.42066  1.0000
  C   C284      1.0  0.11920  0.41350  0.41652  1.0000
  C   C285      1.0  0.13505  0.40682  0.35785  1.0000
  C   C286      1.0  0.14093  0.38051  0.35536  1.0000
  C   C287      1.0  0.15433  0.36964  0.41966  1.0000
  C   C288      1.0  0.15861  0.34305  0.41459  1.0000
  H   H157      1.0  0.16830  0.33518  0.46067  1.0000
  H   H158      1.0  0.11274  0.39967  0.45623  1.0000
  N   N127      1.0  0.16324  0.38382  0.48563  1.0000
  H   H159      1.0  0.16092  0.40215  0.49144  1.0000
  H   H160      1.0  0.17236  0.37604  0.52905  1.0000
  N   N128      1.0  0.09565  0.44466  0.48094  1.0000
  O   O79       1.0  0.08001  0.43209  0.46305  1.0000
  O   O80       1.0  0.10047  0.44062  0.56164  1.0000
  C   C289      1.0  0.14399  0.58521  0.38865  1.0000
  C   C290      1.0  0.13647  0.55975  0.38430  1.0000
  H   H161      1.0  0.14205  0.54631  0.42806  1.0000
  C   C291      1.0  0.14967  0.68422  0.33861  1.0000
  C   C292      1.0  0.13622  0.67330  0.40210  1.0000
  C   C293      1.0  0.13217  0.64665  0.39858  1.0000
  H   H162      1.0  0.12243  0.63893  0.44475  1.0000
  N   N129      1.0  0.15896  0.59070  0.44822  1.0000
  H   H163      1.0  0.16466  0.57751  0.48699  1.0000
  H   H164      1.0  0.16468  0.60780  0.45313  1.0000
  N   N130      1.0  0.12775  0.68897  0.47032  1.0000
  O   O81       1.0  0.13314  0.68178  0.54756  1.0000
  O   O82       1.0  0.10887  0.68896  0.46682  1.0000
  C   C294      1.0  0.86749  0.42632  0.38947  1.0000
  C   C295      1.0  0.87513  0.45172  0.38521  1.0000
  H   H165      1.0  0.86942  0.46529  0.42817  1.0000
  C   C296      1.0  0.86187  0.32718  0.34006  1.0000
  C   C297      1.0  0.87531  0.33806  0.40369  1.0000
  C   C298      1.0  0.87936  0.36472  0.40042  1.0000
  H   H166      1.0  0.88911  0.37239  0.44664  1.0000
  N   N131      1.0  0.85227  0.42101  0.44791  1.0000
  H   H167      1.0  0.84646  0.43429  0.48597  1.0000
  H   H168      1.0  0.84648  0.40394  0.45276  1.0000
  N   N132      1.0  0.88378  0.32235  0.47177  1.0000
  O   O83       1.0  0.87840  0.32949  0.54907  1.0000
  O   O84       1.0  0.90267  0.32235  0.46824  1.0000
  C   C299      1.0  0.55881  0.00617  0.35024  1.0000
  C   C300      1.0  0.54751  0.02724  0.38389  1.0000
  C   C301      1.0  0.52629  0.02598  0.38286  1.0000
  C   C302      1.0  0.51612  0.00423  0.34944  1.0000
  C   C303      1.0  0.49487  0.00443  0.35169  1.0000
  C   C304      1.0  0.48381  0.99246  0.42214  1.0000
  C   C305      1.0  0.46258  0.99294  0.41736  1.0000
  H   H169      1.0  0.45437  0.98447  0.46776  1.0000
  H   H170      1.0  0.51821  0.04112  0.40805  1.0000
  N   N133      1.0  0.49275  0.98072  0.49370  1.0000
  H   H171      1.0  0.50729  0.98018  0.50050  1.0000
  H   H172      1.0  0.48483  0.97280  0.54134  1.0000
  N   N134      1.0  0.55727  0.04891  0.42163  1.0000
  O   O85       1.0  0.55278  0.06922  0.38062  1.0000
  O   O86       1.0  0.55310  0.05161  0.50376  1.0000
  C   C306      1.0  0.05879  0.50616  0.35036  1.0000
  C   C307      1.0  0.04749  0.52728  0.38373  1.0000
  C   C308      1.0  0.02627  0.52601  0.38272  1.0000
  C   C309      1.0  0.01611  0.50424  0.34952  1.0000
  C   C310      1.0  0.99487  0.50444  0.35177  1.0000
  C   C311      1.0  0.98382  0.49278  0.42291  1.0000
  C   C312      1.0  0.96260  0.49325  0.41818  1.0000
  H   H173      1.0  0.95438  0.48503  0.46906  1.0000
  H   H174      1.0  0.01819  0.54118  0.40769  1.0000
  N   N135      1.0  0.99278  0.48135  0.49504  1.0000
  H   H175      1.0  0.00731  0.48079  0.50177  1.0000
  H   H176      1.0  0.98486  0.47363  0.54312  1.0000
  N   N136      1.0  0.05727  0.54897  0.42122  1.0000
  O   O87       1.0  0.05279  0.56924  0.37993  1.0000
  O   O88       1.0  0.05309  0.55176  0.50330  1.0000
  C   C313      1.0  0.23161  0.23747  0.37555  1.0000
  C   C314      1.0  0.21053  0.24212  0.37188  1.0000
  H   H177      1.0  0.20103  0.22919  0.40170  1.0000
  C   C315      1.0  0.30954  0.24809  0.33650  1.0000
  C   C316      1.0  0.29951  0.26168  0.40607  1.0000
  C   C317      1.0  0.27821  0.26384  0.40416  1.0000
  H   H178      1.0  0.27116  0.27348  0.45539  1.0000
  N   N137      1.0  0.23833  0.21574  0.41648  1.0000
  H   H179      1.0  0.22904  0.20341  0.44278  1.0000
  H   H180      1.0  0.25259  0.21180  0.42112  1.0000
  N   N138      1.0  0.31089  0.27166  0.47875  1.0000
  O   O89       1.0  0.30602  0.26133  0.55218  1.0000
  O   O90       1.0  0.30871  0.29551  0.48587  1.0000
  C   C318      1.0  0.77976  0.77380  0.37590  1.0000
  C   C319      1.0  0.80084  0.76917  0.37244  1.0000
  H   H181      1.0  0.81032  0.78211  0.40241  1.0000
  C   C320      1.0  0.70186  0.76315  0.33594  1.0000
  C   C321      1.0  0.71186  0.74968  0.40587  1.0000
  C   C322      1.0  0.73316  0.74752  0.40419  1.0000
  H   H182      1.0  0.74019  0.73797  0.45568  1.0000
  N   N139      1.0  0.77300  0.79552  0.41677  1.0000
  H   H183      1.0  0.78227  0.80786  0.44317  1.0000
  H   H184      1.0  0.75874  0.79945  0.42123  1.0000
  N   N140      1.0  0.70045  0.73982  0.47866  1.0000
  O   O91       1.0  0.70529  0.75027  0.55192  1.0000
  O   O92       1.0  0.70263  0.71599  0.48629  1.0000
  C   C323      1.0  0.80925  0.26459  0.35746  1.0000
  C   C324      1.0  0.79558  0.28236  0.39747  1.0000
  C   C325      1.0  0.77458  0.27777  0.39414  1.0000
  C   C326      1.0  0.76643  0.25583  0.35219  1.0000
  C   C327      1.0  0.74499  0.25264  0.35427  1.0000
  C   C328      1.0  0.73502  0.23907  0.42459  1.0000
  C   C329      1.0  0.71376  0.23679  0.42173  1.0000
  H   H185      1.0  0.70666  0.22664  0.47167  1.0000
  H   H186      1.0  0.76509  0.29077  0.42378  1.0000
  N   N141      1.0  0.74514  0.22805  0.49438  1.0000
  H   H187      1.0  0.75969  0.22910  0.49963  1.0000
  H   H188      1.0  0.73809  0.21889  0.54201  1.0000
  N   N142      1.0  0.80284  0.30433  0.44350  1.0000
  O   O93       1.0  0.79658  0.32479  0.40846  1.0000
  O   O94       1.0  0.79818  0.30413  0.52565  1.0000
  C   C330      1.0  0.20228  0.74682  0.35695  1.0000
  C   C331      1.0  0.21593  0.72906  0.39718  1.0000
  C   C332      1.0  0.23693  0.73364  0.39408  1.0000
  C   C333      1.0  0.24511  0.75557  0.35210  1.0000
  C   C334      1.0  0.26654  0.75874  0.35440  1.0000
  C   C335      1.0  0.27648  0.77225  0.42496  1.0000
  C   C336      1.0  0.29774  0.77453  0.42233  1.0000
  H   H189      1.0  0.30482  0.78462  0.47243  1.0000
  H   H190      1.0  0.24640  0.72065  0.42387  1.0000
  N   N143      1.0  0.26633  0.78322  0.49475  1.0000
  H   H191      1.0  0.25178  0.78219  0.49984  1.0000
  H   H192      1.0  0.27337  0.79235  0.54253  1.0000
  N   N144      1.0  0.20863  0.70710  0.44321  1.0000
  O   O95       1.0  0.21491  0.68663  0.40830  1.0000
  O   O96       1.0  0.21325  0.70732  0.52540  1.0000
