data_image0
_chemical_formula_structural       C5HCNHCO2HC4HCO2NCNCNC2NC2H2CO2HCNHC2HCNHC4O2HC2HC2HCO2HNCNC2O2HC4O2H2CNC2NHCNCNC2HC2NC3O2HC4OC3HCNHCO2HC4HC3NHCO2HCHCNC2H2CO2HCNC2H2CO2HC4HC3NHCO2HC4HC3NHCO2HC4HC3NHCO2HC4HC3NHCO2HC4HC3NHCO2HC4HC2NHCO2HCNC2H2CO2HCNC2H2CO2HCNC2H2CO2HCNC2H2CO2HCNC2H2CO2HC4HC3NHCO2HC4HC3NHCO2HC4HC3NHCO2HC3NH2C4HC3NHCO2HC4HC3NHCO2HC2NCN2CNCNCNCNCNCNCNCNCNCNCNCNCNCNCNCNCNCNCNCNCNCNCNCNCNCNCNCNCNCNCNCNCNCNCNCNCNCNCNC2H2CO2H2C4HC3NHCO2HC4HC3NHCO2HCNC2H2CO2HCNC2H2CO2HCNC2H2CO2HCNC2H2CO2HCNC2H2CO2HCNHC4HC3NHCO2HC4HC3NHCO2HC4HC3NHCO2HC3HNHCOHC4HC3NHCO2HC4HC3NHCO2HCNC2H2CO2HCNC2H2CO2HCNC2H2CO2HC2HCO2HCNC2H2CO2HCNC2H2CO2H
_chemical_formula_sum              "C336 H144 N96 O96"
_cell_length_a       62.6471
_cell_length_b       62.6471
_cell_length_c       14.9245
_cell_angle_alpha    90
_cell_angle_beta     90
_cell_angle_gamma    120

_space_group_name_H-M_alt    "P 1"
_space_group_IT_number       1

loop_
  _space_group_symop_operation_xyz
  'x, y, z'

loop_
  _atom_site_type_symbol
  _atom_site_label
  _atom_site_symmetry_multiplicity
  _atom_site_fract_x
  _atom_site_fract_y
  _atom_site_fract_z
  _atom_site_occupancy
  C   C1        1.0  0.00421  0.09364  0.33094  1.0000
  C   C2        1.0  0.00614  0.11772  0.33547  1.0000
  C   C3        1.0  0.00520  0.16337  0.33958  1.0000
  C   C4        1.0  0.04885  0.00278  0.33457  1.0000
  C   C5        1.0  0.06924  0.02021  0.28388  1.0000
  H   H1        1.0  0.06720  0.03269  0.24582  1.0000
  C   C6        1.0  0.04919  0.27145  0.27362  1.0000
  N   N1        1.0  0.06777  0.29509  0.27942  1.0000
  H   H2        1.0  0.03631  0.26695  0.22432  1.0000
  C   C7        1.0  0.07305  0.34296  0.30044  1.0000
  O   O1        1.0  0.06888  0.34919  0.22790  1.0000
  O   O2        1.0  0.05866  0.34073  0.36116  1.0000
  H   H3        1.0  0.06032  0.33768  0.41792  1.0000
  C   C8        1.0  0.06880  0.57960  0.32033  1.0000
  C   C9        1.0  0.01712  0.55666  0.31239  1.0000
  C   C10       1.0  0.02968  0.55016  0.24803  1.0000
  C   C11       1.0  0.05559  0.56175  0.25389  1.0000
  H   H4        1.0  0.06503  0.55728  0.20854  1.0000
  C   C12       1.0  0.01755  0.53386  0.17841  1.0000
  O   O3        1.0  0.02194  0.51720  0.16315  1.0000
  O   O4        1.0  0.00857  0.54074  0.11913  1.0000
  N   N2        1.0  0.00391  0.98109  0.33588  1.0000
  C   C13       1.0  0.02592  0.00265  0.33602  1.0000
  N   N3        1.0  0.02524  0.02409  0.33588  1.0000
  C   C14       1.0  0.00452  0.18604  0.33948  1.0000
  N   N4        1.0  0.02582  0.20845  0.34057  1.0000
  C   C15       1.0  0.02575  0.23016  0.33904  1.0000
  C   C16       1.0  0.02111  0.06834  0.38191  1.0000
  N   N5        1.0  0.02044  0.08969  0.37906  1.0000
  C   C17       1.0  0.02812  0.14052  0.35304  1.0000
  C   C18       1.0  0.02730  0.16282  0.35355  1.0000
  H   H5        1.0  0.04331  0.17908  0.36462  1.0000
  H   H6        1.0  0.03421  0.06768  0.42070  1.0000
  C   C19       1.0  0.05076  0.14192  0.36508  1.0000
  O   O5        1.0  0.06073  0.14888  0.43806  1.0000
  O   O6        1.0  0.06501  0.14622  0.30158  1.0000
  H   H7        1.0  0.06045  0.14340  0.24461  1.0000
  C   C20       1.0  0.05229  0.98522  0.38192  1.0000
  N   N6        1.0  0.07431  0.98588  0.37906  1.0000
  H   H8        1.0  0.03853  0.97212  0.42070  1.0000
  C   C21       1.0  0.04727  0.25380  0.33670  1.0000
  C   C22       1.0  0.06574  0.26189  0.40323  1.0000
  H   H9        1.0  0.06420  0.24974  0.45226  1.0000
  C   C23       1.0  0.05546  0.58614  0.37934  1.0000
  N   N7        1.0  0.03055  0.57416  0.37461  1.0000
  H   H10       1.0  0.06403  0.59854  0.42992  1.0000
  C   C24       1.0  0.09449  0.00212  0.33094  1.0000
  C   C25       1.0  0.09186  0.02002  0.28016  1.0000
  C   C26       1.0  0.11665  0.00019  0.33548  1.0000
  C   C27       1.0  0.10983  0.03580  0.22084  1.0000
  O   O7        1.0  0.11722  0.05795  0.22549  1.0000
  O   O8        1.0  0.11124  0.02681  0.14886  1.0000
  H   H11       1.0  0.12097  0.03549  0.10398  1.0000
  C   C28       1.0  0.09707  0.34852  0.31867  1.0000
  C   C29       1.0  0.11589  0.37361  0.32045  1.0000
  H   H12       1.0  0.11135  0.38680  0.30537  1.0000
  C   C30       1.0  0.12446  0.52093  0.28440  1.0000
  C   C31       1.0  0.11912  0.54034  0.28315  1.0000
  H   H13       1.0  0.10244  0.53675  0.25790  1.0000
  C   C32       1.0  0.10629  0.49775  0.25555  1.0000
  O   O9        1.0  0.09980  0.49549  0.17722  1.0000
  O   O10       1.0  0.09064  0.48282  0.30781  1.0000
  H   H14       1.0  0.09234  0.48320  0.36683  1.0000
  N   N8        1.0  0.11007  0.61341  0.34689  1.0000
  C   C33       1.0  0.09435  0.58937  0.32950  1.0000
  N   N9        1.0  0.10387  0.57439  0.31960  1.0000
  C   C34       1.0  0.11747  0.97821  0.35303  1.0000
  C   C35       1.0  0.09622  0.95556  0.36505  1.0000
  O   O11       1.0  0.09321  0.94559  0.43802  1.0000
  O   O12       1.0  0.08627  0.94132  0.30154  1.0000
  H   H15       1.0  0.08802  0.94589  0.24458  1.0000
  C   C36       1.0  0.08565  0.30404  0.34336  1.0000
  C   C37       1.0  0.08502  0.28691  0.40789  1.0000
  C   C38       1.0  0.10308  0.33006  0.34163  1.0000
  C   C39       1.0  0.10096  0.29456  0.48028  1.0000
  O   O13       1.0  0.11200  0.28351  0.49758  1.0000
  O   O14       1.0  0.09689  0.30551  0.54090  1.0000
  H   H16       1.0  0.10494  0.30982  0.59253  1.0000
  H   H17       1.0  0.12192  0.65535  0.41053  1.0000
  C   C40       1.0  0.16130  0.02241  0.32520  1.0000
  N   N10       1.0  0.13893  0.02101  0.32353  1.0000
  C   C41       1.0  0.15008  0.64870  0.36482  1.0000
  C   C42       1.0  0.15017  0.46944  0.27206  1.0000
  N   N11       1.0  0.14603  0.48869  0.27076  1.0000
  H   H18       1.0  0.14348  0.45688  0.22104  1.0000
  C   C43       1.0  0.15941  0.40646  0.34405  1.0000
  N   N12       1.0  0.15321  0.42449  0.34047  1.0000
  C   C44       1.0  0.12828  0.58226  0.32607  1.0000
  N   N13       1.0  0.14365  0.60677  0.34313  1.0000
  C   C45       1.0  0.13483  0.62271  0.35389  1.0000
  C   C46       1.0  0.14058  0.97902  0.35354  1.0000
  H   H19       1.0  0.14083  0.96301  0.36461  1.0000
  C   C47       1.0  0.14064  0.38098  0.34213  1.0000
  C   C48       1.0  0.14551  0.36177  0.36242  1.0000
  N   N14       1.0  0.12709  0.33786  0.36178  1.0000
  C   C49       1.0  0.15417  0.68964  0.39235  1.0000
  C   C50       1.0  0.14009  0.66358  0.39223  1.0000
  C   C51       1.0  0.14258  0.70297  0.41371  1.0000
  O   O15       1.0  0.13423  0.70071  0.48934  1.0000
  O   O16       1.0  0.13204  0.70843  0.35574  1.0000
  H   H20       1.0  0.13519  0.70927  0.29757  1.0000
  C   C52       1.0  0.15407  0.50690  0.33357  1.0000
  C   C53       1.0  0.14710  0.52539  0.32308  1.0000
  C   C54       1.0  0.13555  0.56407  0.31817  1.0000
  C   C55       1.0  0.15823  0.56774  0.35123  1.0000
  O   O17       1.0  0.15977  0.51804  0.53445  1.0000
  C   C56       1.0  0.00355  0.04734  0.33456  1.0000
  C   C57       1.0  0.98631  0.07310  0.28016  1.0000
  C   C58       1.0  0.98613  0.05030  0.28388  1.0000
  H   H21       1.0  0.97364  0.03577  0.24582  1.0000
  C   C59       1.0  0.98392  0.14016  0.32518  1.0000
  N   N15       1.0  0.98531  0.11918  0.32351  1.0000
  H   H22       1.0  0.96713  0.13868  0.31428  1.0000
  C   C60       1.0  0.97053  0.07530  0.22084  1.0000
  O   O18       1.0  0.94838  0.06053  0.22549  1.0000
  O   O19       1.0  0.97952  0.08569  0.14884  1.0000
  H   H23       1.0  0.97083  0.08674  0.10397  1.0000
  C   C61       1.0  0.95899  0.95748  0.33458  1.0000
  C   C62       1.0  0.91269  0.91184  0.33095  1.0000
  C   C63       1.0  0.93323  0.91448  0.28016  1.0000
  C   C64       1.0  0.95603  0.93709  0.28388  1.0000
  H   H24       1.0  0.97056  0.93913  0.24582  1.0000
  C   C65       1.0  0.88861  0.88969  0.33548  1.0000
  C   C66       1.0  0.84295  0.84310  0.33958  1.0000
  C   C67       1.0  0.86617  0.84503  0.32520  1.0000
  N   N16       1.0  0.88714  0.86740  0.32353  1.0000
  H   H25       1.0  0.86765  0.82973  0.31433  1.0000
  C   C68       1.0  0.93103  0.89650  0.22084  1.0000
  O   O20       1.0  0.94579  0.88911  0.22549  1.0000
  O   O21       1.0  0.92063  0.89510  0.14886  1.0000
  H   H26       1.0  0.91959  0.88536  0.10398  1.0000
  C   C69       1.0  0.16323  0.00112  0.33958  1.0000
  H   H27       1.0  0.17661  0.03919  0.31433  1.0000
  C   C70       1.0  0.73489  0.77904  0.27360  1.0000
  N   N17       1.0  0.71125  0.77398  0.27940  1.0000
  C   C71       1.0  0.65781  0.74982  0.31860  1.0000
  C   C72       1.0  0.63271  0.74355  0.32039  1.0000
  H   H28       1.0  0.61952  0.72582  0.30526  1.0000
  H   H29       1.0  0.73939  0.77067  0.22426  1.0000
  C   C73       1.0  0.66337  0.73137  0.30032  1.0000
  O   O22       1.0  0.65714  0.72098  0.22776  1.0000
  O   O23       1.0  0.66560  0.71920  0.36100  1.0000
  H   H30       1.0  0.66865  0.72390  0.41778  1.0000
  C   C74       1.0  0.22733  0.95714  0.27369  1.0000
  N   N18       1.0  0.23238  0.93856  0.27947  1.0000
  C   C75       1.0  0.25651  0.90926  0.31871  1.0000
  C   C76       1.0  0.26278  0.89043  0.32049  1.0000
  H   H31       1.0  0.28051  0.89498  0.30542  1.0000
  H   H32       1.0  0.23573  0.97004  0.22441  1.0000
  C   C77       1.0  0.27497  0.93327  0.30051  1.0000
  O   O24       1.0  0.28538  0.93745  0.22798  1.0000
  O   O25       1.0  0.28712  0.94766  0.36124  1.0000
  H   H33       1.0  0.28241  0.94599  0.41802  1.0000
  C   C78       1.0  0.25407  0.04626  0.34177  1.0000
  C   C79       1.0  0.30430  0.08466  0.33503  1.0000
  C   C80       1.0  0.28740  0.08343  0.26830  1.0000
  C   C81       1.0  0.26240  0.06410  0.27286  1.0000
  H   H34       1.0  0.25046  0.06201  0.22218  1.0000
  C   C82       1.0  0.33035  0.10201  0.33674  1.0000
  C   C83       1.0  0.38135  0.13936  0.33683  1.0000
  C   C84       1.0  0.36226  0.14433  0.31562  1.0000
  N   N19       1.0  0.33829  0.12601  0.31596  1.0000
  H   H35       1.0  0.36610  0.16167  0.29832  1.0000
  C   C85       1.0  0.29534  0.09875  0.19420  1.0000
  O   O26       1.0  0.28428  0.10953  0.17314  1.0000
  O   O27       1.0  0.30655  0.09419  0.13598  1.0000
  H   H36       1.0  0.31105  0.10179  0.08354  1.0000
  C   C86       1.0  0.79723  0.75227  0.34179  1.0000
  C   C87       1.0  0.78540  0.70203  0.33506  1.0000
  C   C88       1.0  0.80109  0.71894  0.26836  1.0000
  C   C89       1.0  0.80676  0.74394  0.27292  1.0000
  H   H37       1.0  0.81662  0.75588  0.22227  1.0000
  C   C90       1.0  0.77671  0.67599  0.33678  1.0000
  C   C91       1.0  0.76306  0.62498  0.33687  1.0000
  C   C92       1.0  0.78713  0.64408  0.31567  1.0000
  N   N20       1.0  0.79278  0.66805  0.31601  1.0000
  H   H38       1.0  0.80063  0.64024  0.29837  1.0000
  C   C93       1.0  0.80849  0.71100  0.19429  1.0000
  O   O28       1.0  0.83033  0.72206  0.17331  1.0000
  O   O29       1.0  0.79274  0.69980  0.13604  1.0000
  H   H39       1.0  0.79585  0.69530  0.08361  1.0000
  C   C94       1.0  0.96007  0.20908  0.34167  1.0000
  C   C95       1.0  0.92167  0.22090  0.33501  1.0000
  C   C96       1.0  0.92288  0.20521  0.26830  1.0000
  C   C97       1.0  0.94221  0.19954  0.27283  1.0000
  H   H40       1.0  0.94429  0.18968  0.22218  1.0000
  C   C98       1.0  0.90431  0.22959  0.33675  1.0000
  C   C99       1.0  0.86696  0.24325  0.33685  1.0000
  C   C100      1.0  0.86199  0.21919  0.31564  1.0000
  N   N21       1.0  0.88031  0.21353  0.31597  1.0000
  H   H41       1.0  0.84465  0.20569  0.29833  1.0000
  C   C101      1.0  0.90753  0.19781  0.19426  1.0000
  O   O30       1.0  0.89675  0.17596  0.17329  1.0000
  O   O31       1.0  0.91208  0.21356  0.13599  1.0000
  H   H42       1.0  0.90447  0.21044  0.08357  1.0000
  C   C102      1.0  0.22712  0.44675  0.34636  1.0000
  C   C103      1.0  0.27915  0.46880  0.35190  1.0000
  C   C104      1.0  0.26794  0.47482  0.28065  1.0000
  C   C105      1.0  0.24195  0.46381  0.27990  1.0000
  H   H43       1.0  0.23359  0.46801  0.22927  1.0000
  C   C106      1.0  0.30521  0.47914  0.36207  1.0000
  C   C107      1.0  0.35762  0.50264  0.36487  1.0000
  C   C108      1.0  0.34514  0.51530  0.34074  1.0000
  N   N22       1.0  0.32016  0.50324  0.33929  1.0000
  H   H44       1.0  0.35450  0.53314  0.31895  1.0000
  C   C109      1.0  0.28131  0.48965  0.20935  1.0000
  O   O32       1.0  0.27865  0.50711  0.18862  1.0000
  O   O33       1.0  0.28861  0.48036  0.15272  1.0000
  H   H45       1.0  0.29599  0.48768  0.10201  1.0000
  C   C110      1.0  0.55955  0.78162  0.34646  1.0000
  C   C111      1.0  0.53753  0.81162  0.35192  1.0000
  C   C112      1.0  0.53150  0.79438  0.28070  1.0000
  C   C113      1.0  0.54250  0.77939  0.27998  1.0000
  H   H46       1.0  0.53829  0.76682  0.22938  1.0000
  C   C114      1.0  0.52719  0.82734  0.36208  1.0000
  C   C115      1.0  0.50368  0.85624  0.36494  1.0000
  C   C116      1.0  0.49103  0.83111  0.34078  1.0000
  N   N23       1.0  0.50310  0.81819  0.33931  1.0000
  H   H47       1.0  0.47319  0.82262  0.31899  1.0000
  C   C117      1.0  0.51666  0.79291  0.20941  1.0000
  O   O34       1.0  0.49919  0.77278  0.18873  1.0000
  O   O35       1.0  0.52594  0.80948  0.15275  1.0000
  H   H48       1.0  0.51862  0.80954  0.10205  1.0000
  C   C118      1.0  0.22470  0.77920  0.34634  1.0000
  C   C119      1.0  0.19472  0.72718  0.35188  1.0000
  C   C120      1.0  0.21196  0.73838  0.28065  1.0000
  C   C121      1.0  0.22693  0.76437  0.27990  1.0000
  H   H49       1.0  0.23950  0.77272  0.22928  1.0000
  C   C122      1.0  0.17899  0.70111  0.36206  1.0000
  C   C123      1.0  0.17522  0.66118  0.34073  1.0000
  N   N24       1.0  0.18815  0.68617  0.33929  1.0000
  H   H50       1.0  0.18370  0.65182  0.31894  1.0000
  C   C124      1.0  0.21342  0.72501  0.20937  1.0000
  O   O36       1.0  0.23355  0.72767  0.18868  1.0000
  O   O37       1.0  0.19685  0.71771  0.15271  1.0000
  H   H51       1.0  0.19679  0.71033  0.10202  1.0000
  C   C125      1.0  0.44178  0.23816  0.27297  1.0000
  N   N25       1.0  0.45318  0.26312  0.27454  1.0000
  C   C126      1.0  0.46686  0.31560  0.30022  1.0000
  C   C127      1.0  0.47894  0.34165  0.30067  1.0000
  H   H52       1.0  0.46906  0.34991  0.28191  1.0000
  H   H53       1.0  0.43010  0.22881  0.22131  1.0000
  C   C128      1.0  0.44196  0.30240  0.27837  1.0000
  O   O38       1.0  0.43602  0.30472  0.20255  1.0000
  O   O39       1.0  0.42589  0.29703  0.33598  1.0000
  H   H54       1.0  0.42811  0.29616  0.39421  1.0000
  C   C129      1.0  0.80143  0.56454  0.27287  1.0000
  N   N26       1.0  0.81501  0.55315  0.27447  1.0000
  C   C130      1.0  0.85380  0.53946  0.30018  1.0000
  C   C131      1.0  0.86776  0.52738  0.30063  1.0000
  H   H55       1.0  0.88590  0.53726  0.28183  1.0000
  H   H56       1.0  0.80376  0.57621  0.22117  1.0000
  C   C132      1.0  0.86550  0.56436  0.27829  1.0000
  O   O40       1.0  0.87376  0.57030  0.20246  1.0000
  O   O41       1.0  0.87620  0.58044  0.33588  1.0000
  H   H57       1.0  0.87311  0.57823  0.39410  1.0000
  C   C133      1.0  0.76816  0.20487  0.27286  1.0000
  N   N27       1.0  0.74320  0.19129  0.27448  1.0000
  C   C134      1.0  0.69072  0.15251  0.30019  1.0000
  C   C135      1.0  0.66467  0.13855  0.30063  1.0000
  H   H58       1.0  0.65641  0.12040  0.28187  1.0000
  H   H59       1.0  0.77750  0.20253  0.22120  1.0000
  C   C136      1.0  0.70391  0.14080  0.27833  1.0000
  O   O42       1.0  0.70159  0.13254  0.20252  1.0000
  O   O43       1.0  0.70929  0.13011  0.33595  1.0000
  H   H60       1.0  0.71016  0.13320  0.39418  1.0000
  C   C137      1.0  0.53688  0.68200  0.27202  1.0000
  N   N28       1.0  0.51763  0.65861  0.27071  1.0000
  C   C138      1.0  0.48539  0.60480  0.28428  1.0000
  C   C139      1.0  0.46597  0.58005  0.28303  1.0000
  H   H61       1.0  0.46956  0.56695  0.25775  1.0000
  H   H62       1.0  0.54943  0.68786  0.22099  1.0000
  C   C140      1.0  0.50856  0.60981  0.25541  1.0000
  O   O44       1.0  0.51082  0.60559  0.17706  1.0000
  O   O45       1.0  0.52350  0.60908  0.30763  1.0000
  H   H63       1.0  0.52312  0.61040  0.36665  1.0000
  C   C141      1.0  0.32432  0.85614  0.27200  1.0000
  N   N29       1.0  0.34771  0.86027  0.27069  1.0000
  C   C142      1.0  0.40152  0.88184  0.28420  1.0000
  C   C143      1.0  0.42627  0.88717  0.28290  1.0000
  H   H64       1.0  0.43936  0.90384  0.25756  1.0000
  H   H65       1.0  0.31845  0.86281  0.22094  1.0000
  C   C144      1.0  0.39651  0.90001  0.25529  1.0000
  O   O46       1.0  0.40073  0.90647  0.17694  1.0000
  O   O47       1.0  0.39724  0.91567  0.30749  1.0000
  H   H66       1.0  0.39593  0.91399  0.36651  1.0000
  C   C145      1.0  0.46802  0.16272  0.33751  1.0000
  C   C146      1.0  0.50738  0.15260  0.34510  1.0000
  C   C147      1.0  0.50637  0.16713  0.27348  1.0000
  C   C148      1.0  0.48674  0.17225  0.27175  1.0000
  H   H67       1.0  0.48561  0.18247  0.22022  1.0000
  C   C149      1.0  0.52592  0.14569  0.35531  1.0000
  C   C150      1.0  0.56469  0.13431  0.36045  1.0000
  C   C151      1.0  0.56850  0.15724  0.32988  1.0000
  N   N30       1.0  0.54939  0.16170  0.32772  1.0000
  H   H68       1.0  0.58513  0.17021  0.30442  1.0000
  C   C152      1.0  0.52263  0.17467  0.20208  1.0000
  O   O48       1.0  0.53356  0.19652  0.18109  1.0000
  O   O49       1.0  0.51899  0.15892  0.14490  1.0000
  H   H69       1.0  0.52725  0.16208  0.09387  1.0000
  C   C153      1.0  0.69977  0.53831  0.33746  1.0000
  C   C154      1.0  0.65029  0.49895  0.34509  1.0000
  C   C155      1.0  0.66584  0.49995  0.27347  1.0000
  C   C156      1.0  0.69058  0.51958  0.27173  1.0000
  H   H70       1.0  0.70194  0.52072  0.22021  1.0000
  C   C157      1.0  0.62484  0.48040  0.35529  1.0000
  C   C158      1.0  0.57468  0.44163  0.36036  1.0000
  C   C159      1.0  0.59381  0.43782  0.32983  1.0000
  N   N31       1.0  0.61739  0.45693  0.32770  1.0000
  H   H71       1.0  0.59015  0.42119  0.30437  1.0000
  C   C160      1.0  0.65712  0.48369  0.20208  1.0000
  O   O50       1.0  0.66804  0.47276  0.18112  1.0000
  O   O51       1.0  0.64501  0.48733  0.14488  1.0000
  H   H72       1.0  0.63991  0.47906  0.09385  1.0000
  C   C161      1.0  0.84361  0.30656  0.33744  1.0000
  C   C162      1.0  0.85372  0.35604  0.34510  1.0000
  C   C163      1.0  0.83919  0.34050  0.27346  1.0000
  C   C164      1.0  0.83407  0.31575  0.27170  1.0000
  H   H73       1.0  0.82386  0.30440  0.22017  1.0000
  C   C165      1.0  0.86062  0.38149  0.35533  1.0000
  C   C166      1.0  0.87200  0.43164  0.36045  1.0000
  C   C167      1.0  0.84906  0.41251  0.32985  1.0000
  N   N32       1.0  0.84461  0.38894  0.32771  1.0000
  H   H74       1.0  0.83610  0.41618  0.30435  1.0000
  C   C168      1.0  0.83165  0.34922  0.20206  1.0000
  O   O52       1.0  0.80980  0.33830  0.18108  1.0000
  O   O53       1.0  0.84739  0.36133  0.14488  1.0000
  H   H75       1.0  0.84424  0.36643  0.09385  1.0000
  C   C169      1.0  0.99112  0.54403  0.32110  1.0000
  C   C170      1.0  0.93947  0.51372  0.33607  1.0000
  C   C171      1.0  0.95523  0.50391  0.32348  1.0000
  N   N33       1.0  0.97976  0.51909  0.31644  1.0000
  H   H76       1.0  0.94863  0.48541  0.31747  1.0000
  H   H77       1.0  0.00167  0.53229  0.06961  1.0000
  C   C172      1.0  0.42673  0.49047  0.32035  1.0000
  C   C173      1.0  0.44966  0.46173  0.31237  1.0000
  C   C174      1.0  0.45615  0.48078  0.24801  1.0000
  C   C175      1.0  0.44457  0.49511  0.25388  1.0000
  H   H78       1.0  0.44903  0.50902  0.20853  1.0000
  C   C176      1.0  0.46229  0.44835  0.32108  1.0000
  C   C177      1.0  0.49260  0.42702  0.33606  1.0000
  C   C178      1.0  0.50241  0.45258  0.32345  1.0000
  N   N34       1.0  0.48723  0.46193  0.31641  1.0000
  H   H79       1.0  0.52091  0.46450  0.31743  1.0000
  C   C179      1.0  0.47245  0.48496  0.17838  1.0000
  O   O54       1.0  0.48911  0.50600  0.16309  1.0000
  O   O55       1.0  0.46557  0.46909  0.11911  1.0000
  H   H80       1.0  0.47401  0.47063  0.06958  1.0000
  C   C180      1.0  0.51584  0.93751  0.32035  1.0000
  C   C181      1.0  0.54458  0.98919  0.31241  1.0000
  C   C182      1.0  0.52553  0.97664  0.24806  1.0000
  C   C183      1.0  0.51121  0.95072  0.25390  1.0000
  H   H81       1.0  0.49730  0.94128  0.20855  1.0000
  C   C184      1.0  0.55797  0.01519  0.32114  1.0000
  C   C185      1.0  0.57930  0.06684  0.33614  1.0000
  C   C186      1.0  0.55374  0.05108  0.32355  1.0000
  N   N35       1.0  0.54438  0.02655  0.31649  1.0000
  H   H82       1.0  0.54182  0.05767  0.31756  1.0000
  C   C187      1.0  0.52136  0.98876  0.17844  1.0000
  O   O56       1.0  0.50031  0.98438  0.16317  1.0000
  O   O57       1.0  0.53722  0.99774  0.11917  1.0000
  H   H83       1.0  0.53568  0.00465  0.06964  1.0000
  C   C188      1.0  0.98179  0.98041  0.33603  1.0000
  C   C189      1.0  0.00369  0.02455  0.33602  1.0000
  N   N36       1.0  0.98225  0.00242  0.33588  1.0000
  C   C190      1.0  0.98195  0.20759  0.33887  1.0000
  N   N37       1.0  0.98271  0.18620  0.33803  1.0000
  N   N38       1.0  0.00365  0.22915  0.33881  1.0000
  C   C191      1.0  0.79872  0.77563  0.33898  1.0000
  N   N39       1.0  0.82012  0.79778  0.33811  1.0000
  C   C192      1.0  0.82029  0.81976  0.33951  1.0000
  N   N40       1.0  0.79788  0.81865  0.34057  1.0000
  C   C193      1.0  0.77617  0.79687  0.33907  1.0000
  N   N41       1.0  0.77717  0.77578  0.33889  1.0000
  C   C194      1.0  0.23070  0.02438  0.33897  1.0000
  N   N42       1.0  0.20855  0.02361  0.33809  1.0000
  C   C195      1.0  0.18658  0.00181  0.33951  1.0000
  N   N43       1.0  0.18769  0.98051  0.34059  1.0000
  C   C196      1.0  0.20948  0.98058  0.33907  1.0000
  N   N44       1.0  0.23057  0.00268  0.33889  1.0000
  C   C197      1.0  0.20158  0.43811  0.34878  1.0000
  N   N45       1.0  0.18394  0.41380  0.34844  1.0000
  C   C198      1.0  0.17042  0.44883  0.34262  1.0000
  N   N46       1.0  0.19445  0.45525  0.34615  1.0000
  C   C199      1.0  0.56821  0.76472  0.34884  1.0000
  N   N47       1.0  0.59252  0.77141  0.34847  1.0000
  C   C200      1.0  0.59986  0.75421  0.34404  1.0000
  N   N48       1.0  0.58184  0.72999  0.34045  1.0000
  C   C201      1.0  0.55750  0.72286  0.34262  1.0000
  N   N49       1.0  0.55107  0.74046  0.34619  1.0000
  C   C202      1.0  0.24160  0.80475  0.34869  1.0000
  N   N50       1.0  0.23491  0.82238  0.34841  1.0000
  C   C203      1.0  0.25211  0.84691  0.34404  1.0000
  N   N51       1.0  0.27634  0.85312  0.34047  1.0000
  C   C204      1.0  0.28347  0.83591  0.34260  1.0000
  N   N52       1.0  0.26586  0.81188  0.34610  1.0000
  C   C205      1.0  0.43872  0.20018  0.33420  1.0000
  N   N53       1.0  0.41436  0.18263  0.33338  1.0000
  C   C206      1.0  0.40689  0.15804  0.33564  1.0000
  N   N54       1.0  0.42482  0.15169  0.33825  1.0000
  C   C207      1.0  0.44920  0.16882  0.33700  1.0000
  N   N55       1.0  0.45574  0.19290  0.33566  1.0000
  C   C208      1.0  0.76653  0.56763  0.33407  1.0000
  N   N56       1.0  0.77333  0.59198  0.33334  1.0000
  C   C209      1.0  0.75621  0.59945  0.33564  1.0000
  N   N57       1.0  0.73193  0.58151  0.33824  1.0000
  C   C210      1.0  0.72469  0.55713  0.33695  1.0000
  N   N58       1.0  0.74222  0.55060  0.33557  1.0000
  C   C211      1.0  0.80615  0.23980  0.33397  1.0000
  N   N59       1.0  0.82369  0.23300  0.33328  1.0000
  C   C212      1.0  0.84828  0.25011  0.33562  1.0000
  N   N60       1.0  0.85463  0.27439  0.33823  1.0000
  C   C213      1.0  0.83750  0.28164  0.33692  1.0000
  N   N61       1.0  0.81343  0.26411  0.33550  1.0000
  C   C214      1.0  0.42406  0.54729  0.32603  1.0000
  N   N62       1.0  0.39955  0.53814  0.34315  1.0000
  C   C215      1.0  0.38361  0.51339  0.35402  1.0000
  N   N63       1.0  0.39292  0.49794  0.34696  1.0000
  C   C216      1.0  0.41695  0.50625  0.32951  1.0000
  N   N64       1.0  0.43192  0.53074  0.31957  1.0000
  C   C217      1.0  0.45903  0.87802  0.32590  1.0000
  N   N65       1.0  0.46818  0.86266  0.34311  1.0000
  C   C218      1.0  0.49293  0.87148  0.35405  1.0000
  N   N66       1.0  0.50838  0.89624  0.34699  1.0000
  C   C219      1.0  0.50007  0.91196  0.32950  1.0000
  N   N67       1.0  0.47557  0.90243  0.31948  1.0000
  C   C220      1.0  0.58292  0.12708  0.35259  1.0000
  N   N68       1.0  0.60778  0.14256  0.34417  1.0000
  C   C221      1.0  0.62368  0.13365  0.33439  1.0000
  N   N69       1.0  0.61384  0.10877  0.33315  1.0000
  C   C222      1.0  0.58940  0.09273  0.34027  1.0000
  N   N70       1.0  0.57464  0.10255  0.34941  1.0000
  C   C223      1.0  0.54924  0.42341  0.35242  1.0000
  N   N71       1.0  0.53984  0.39854  0.34412  1.0000
  C   C224      1.0  0.51504  0.38264  0.33439  1.0000
  N   N72       1.0  0.50000  0.39249  0.33312  1.0000
  C   C225      1.0  0.50839  0.41692  0.34017  1.0000
  N   N73       1.0  0.53297  0.43168  0.34926  1.0000
  C   C226      1.0  0.87923  0.45709  0.35247  1.0000
  N   N74       1.0  0.86375  0.46648  0.34416  1.0000
  C   C227      1.0  0.87265  0.49128  0.33438  1.0000
  N   N75       1.0  0.89754  0.50632  0.33311  1.0000
  C   C228      1.0  0.91358  0.49793  0.34019  1.0000
  N   N76       1.0  0.90376  0.47335  0.34931  1.0000
  C   C229      1.0  0.93800  0.95404  0.38192  1.0000
  N   N77       1.0  0.91664  0.93202  0.37907  1.0000
  C   C230      1.0  0.86581  0.88887  0.35303  1.0000
  C   C231      1.0  0.84351  0.86576  0.35354  1.0000
  H   H84       1.0  0.82725  0.86551  0.36461  1.0000
  H   H85       1.0  0.93865  0.96780  0.42070  1.0000
  C   C232      1.0  0.86441  0.91012  0.36506  1.0000
  O   O58       1.0  0.85745  0.91313  0.43803  1.0000
  O   O59       1.0  0.86012  0.92006  0.30154  1.0000
  H   H86       1.0  0.86294  0.91832  0.24458  1.0000
  H   H87       1.0  0.16283  0.36547  0.37932  1.0000
  C   C233      1.0  0.75253  0.79476  0.33669  1.0000
  C   C234      1.0  0.70229  0.78289  0.34338  1.0000
  C   C235      1.0  0.71941  0.79937  0.40797  1.0000
  C   C236      1.0  0.74442  0.80511  0.40331  1.0000
  H   H88       1.0  0.75656  0.81569  0.45238  1.0000
  C   C237      1.0  0.67626  0.77429  0.34163  1.0000
  C   C238      1.0  0.62534  0.76093  0.34212  1.0000
  C   C239      1.0  0.64455  0.78500  0.36246  1.0000
  N   N78       1.0  0.66846  0.79050  0.36183  1.0000
  H   H89       1.0  0.64085  0.79862  0.37941  1.0000
  C   C240      1.0  0.71174  0.80762  0.48041  1.0000
  O   O60       1.0  0.72279  0.82970  0.49782  1.0000
  O   O61       1.0  0.70079  0.79258  0.54097  1.0000
  H   H90       1.0  0.69647  0.79630  0.59262  1.0000
  C   C241      1.0  0.21161  0.95906  0.33677  1.0000
  C   C242      1.0  0.22344  0.92067  0.34338  1.0000
  C   C243      1.0  0.20693  0.92129  0.40787  1.0000
  C   C244      1.0  0.20120  0.94057  0.40322  1.0000
  H   H91       1.0  0.19058  0.94211  0.45223  1.0000
  C   C245      1.0  0.23204  0.90324  0.34164  1.0000
  C   C246      1.0  0.24540  0.86568  0.34214  1.0000
  C   C247      1.0  0.22132  0.86081  0.36239  1.0000
  N   N79       1.0  0.21582  0.87923  0.36176  1.0000
  H   H92       1.0  0.20769  0.84349  0.37926  1.0000
  C   C248      1.0  0.19862  0.90534  0.48022  1.0000
  O   O62       1.0  0.17653  0.89430  0.49745  1.0000
  O   O63       1.0  0.21363  0.90940  0.54089  1.0000
  H   H93       1.0  0.20988  0.90134  0.59249  1.0000
  C   C249      1.0  0.27150  0.04883  0.40702  1.0000
  N   N80       1.0  0.29516  0.06736  0.40101  1.0000
  C   C250      1.0  0.34867  0.09587  0.36044  1.0000
  C   C251      1.0  0.37381  0.11459  0.35890  1.0000
  H   H94       1.0  0.38690  0.10996  0.37463  1.0000
  H   H95       1.0  0.26687  0.03632  0.45778  1.0000
  C   C252      1.0  0.34289  0.07181  0.37917  1.0000
  O   O64       1.0  0.34914  0.06765  0.45169  1.0000
  O   O65       1.0  0.34036  0.05724  0.31873  1.0000
  H   H96       1.0  0.33726  0.05885  0.26197  1.0000
  C   C253      1.0  0.78237  0.73483  0.40700  1.0000
  N   N81       1.0  0.77723  0.71117  0.40101  1.0000
  C   C254      1.0  0.75225  0.65766  0.36047  1.0000
  C   C255      1.0  0.74583  0.63252  0.35893  1.0000
  H   H97       1.0  0.72811  0.61943  0.37465  1.0000
  H   H98       1.0  0.77447  0.73946  0.45774  1.0000
  C   C256      1.0  0.73397  0.66343  0.37919  1.0000
  O   O66       1.0  0.72356  0.65719  0.45172  1.0000
  O   O67       1.0  0.72193  0.66596  0.31874  1.0000
  H   H99       1.0  0.72663  0.66905  0.26198  1.0000
  C   C257      1.0  0.95751  0.22394  0.40692  1.0000
  N   N82       1.0  0.93897  0.22907  0.40095  1.0000
  C   C258      1.0  0.91045  0.25405  0.36045  1.0000
  C   C259      1.0  0.89173  0.26047  0.35891  1.0000
  H   H100      1.0  0.89636  0.27819  0.37465  1.0000
  H   H101      1.0  0.97003  0.23184  0.45766  1.0000
  C   C260      1.0  0.93451  0.27234  0.37917  1.0000
  O   O68       1.0  0.93867  0.28274  0.45171  1.0000
  O   O69       1.0  0.94907  0.28438  0.31873  1.0000
  H   H102      1.0  0.94746  0.27968  0.26197  1.0000
  C   C261      1.0  0.23907  0.44095  0.41388  1.0000
  N   N83       1.0  0.26403  0.45226  0.41443  1.0000
  C   C262      1.0  0.31669  0.46580  0.39239  1.0000
  C   C263      1.0  0.34274  0.47778  0.39230  1.0000
  H   H103      1.0  0.35098  0.46783  0.41065  1.0000
  H   H104      1.0  0.22937  0.42931  0.46519  1.0000
  C   C264      1.0  0.30335  0.44087  0.41378  1.0000
  O   O70       1.0  0.30561  0.43478  0.48942  1.0000
  O   O71       1.0  0.29789  0.42486  0.35582  1.0000
  H   H105      1.0  0.29705  0.42718  0.29765  1.0000
  C   C265      1.0  0.56539  0.79939  0.41388  1.0000
  N   N84       1.0  0.55409  0.81306  0.41441  1.0000
  C   C266      1.0  0.54053  0.85216  0.39240  1.0000
  C   C267      1.0  0.52855  0.86623  0.39232  1.0000
  H   H106      1.0  0.53849  0.88441  0.41066  1.0000
  H   H107      1.0  0.57704  0.80135  0.46516  1.0000
  C   C268      1.0  0.56546  0.86376  0.41376  1.0000
  O   O72       1.0  0.57156  0.87211  0.48940  1.0000
  O   O73       1.0  0.58146  0.87431  0.35580  1.0000
  H   H108      1.0  0.57914  0.87115  0.29762  1.0000
  C   C269      1.0  0.20694  0.76726  0.41382  1.0000
  N   N85       1.0  0.19329  0.74230  0.41438  1.0000
  H   H109      1.0  0.20499  0.77696  0.46509  1.0000
  C   C270      1.0  0.44753  0.22575  0.33879  1.0000
  C   C271      1.0  0.46976  0.27785  0.33772  1.0000
  C   C272      1.0  0.47576  0.26615  0.40726  1.0000
  C   C273      1.0  0.46465  0.24015  0.40580  1.0000
  H   H110      1.0  0.46883  0.23146  0.45524  1.0000
  C   C274      1.0  0.48014  0.30399  0.32975  1.0000
  C   C275      1.0  0.50387  0.35648  0.32772  1.0000
  C   C276      1.0  0.51637  0.34386  0.35202  1.0000
  N   N86       1.0  0.50424  0.31885  0.35283  1.0000
  H   H111      1.0  0.53429  0.35317  0.37298  1.0000
  C   C277      1.0  0.49066  0.27907  0.47901  1.0000
  O   O74       1.0  0.50807  0.27618  0.49844  1.0000
  O   O75       1.0  0.48148  0.28612  0.53695  1.0000
  H   H112      1.0  0.48884  0.29319  0.58797  1.0000
  C   C278      1.0  0.78330  0.55882  0.33874  1.0000
  C   C279      1.0  0.81315  0.53658  0.33770  1.0000
  C   C280      1.0  0.79547  0.53060  0.40726  1.0000
  C   C281      1.0  0.78058  0.54171  0.40577  1.0000
  H   H113      1.0  0.76771  0.53754  0.45523  1.0000
  C   C282      1.0  0.82890  0.52619  0.32975  1.0000
  C   C283      1.0  0.85767  0.50246  0.32772  1.0000
  C   C284      1.0  0.83255  0.48996  0.35206  1.0000
  N   N87       1.0  0.81967  0.50209  0.35286  1.0000
  H   H114      1.0  0.82393  0.47204  0.37304  1.0000
  C   C285      1.0  0.79348  0.51570  0.47904  1.0000
  O   O76       1.0  0.77319  0.49831  0.49851  1.0000
  O   O77       1.0  0.80973  0.52489  0.53695  1.0000
  H   H115      1.0  0.80944  0.51753  0.58798  1.0000
  C   C286      1.0  0.78057  0.22304  0.33862  1.0000
  C   C287      1.0  0.72848  0.19316  0.33767  1.0000
  C   C288      1.0  0.74018  0.21087  0.40716  1.0000
  C   C289      1.0  0.76618  0.22577  0.40565  1.0000
  H   H116      1.0  0.77488  0.23864  0.45508  1.0000
  C   C290      1.0  0.70234  0.17740  0.32972  1.0000
  C   C291      1.0  0.64984  0.14865  0.32765  1.0000
  C   C292      1.0  0.66246  0.17376  0.35200  1.0000
  N   N88       1.0  0.68747  0.18664  0.35282  1.0000
  H   H117      1.0  0.65316  0.18238  0.37298  1.0000
  C   C293      1.0  0.72727  0.21286  0.47893  1.0000
  O   O78       1.0  0.73016  0.23316  0.49833  1.0000
  O   O79       1.0  0.72022  0.19663  0.53689  1.0000
  H   H118      1.0  0.71316  0.19693  0.58791  1.0000
  C   C294      1.0  0.16438  0.46768  0.34149  1.0000
  C   C295      1.0  0.16841  0.50582  0.40580  1.0000
  C   C296      1.0  0.17362  0.48626  0.40771  1.0000
  H   H119      1.0  0.18367  0.48506  0.45973  1.0000
  N   N89       1.0  0.16277  0.54869  0.35306  1.0000
  H   H120      1.0  0.17095  0.58421  0.37853  1.0000
  C   C297      1.0  0.17567  0.52192  0.47764  1.0000
  O   O80       1.0  0.19748  0.53299  0.49915  1.0000
  H   H121      1.0  0.16276  0.52620  0.58567  1.0000
  C   C298      1.0  0.53865  0.69796  0.34147  1.0000
  C   C299      1.0  0.49943  0.64843  0.33353  1.0000
  C   C300      1.0  0.50051  0.66384  0.40580  1.0000
  C   C301      1.0  0.52007  0.68861  0.40771  1.0000
  H   H122      1.0  0.52128  0.69986  0.45975  1.0000
  C   C302      1.0  0.48093  0.62297  0.32303  1.0000
  C   C303      1.0  0.44225  0.57275  0.31807  1.0000
  C   C304      1.0  0.43859  0.59176  0.35121  1.0000
  N   N90       1.0  0.45764  0.61535  0.35304  1.0000
  H   H123      1.0  0.42212  0.58800  0.37855  1.0000
  C   C305      1.0  0.48441  0.65500  0.47765  1.0000
  O   O81       1.0  0.47335  0.66574  0.49919  1.0000
  O   O82       1.0  0.48830  0.64297  0.53444  1.0000
  H   H124      1.0  0.48015  0.63781  0.58565  1.0000
  C   C306      1.0  0.30836  0.84196  0.34149  1.0000
  C   C307      1.0  0.35789  0.85226  0.33354  1.0000
  C   C308      1.0  0.34249  0.83795  0.40584  1.0000
  C   C309      1.0  0.31771  0.83273  0.40775  1.0000
  H   H125      1.0  0.30647  0.82270  0.45980  1.0000
  C   C310      1.0  0.38335  0.85922  0.32301  1.0000
  C   C311      1.0  0.43357  0.87074  0.31795  1.0000
  C   C312      1.0  0.41456  0.84809  0.35121  1.0000
  N   N91       1.0  0.39098  0.84356  0.35308  1.0000
  H   H126      1.0  0.41832  0.83538  0.37860  1.0000
  C   C313      1.0  0.35133  0.83070  0.47770  1.0000
  O   O83       1.0  0.34059  0.80890  0.49929  1.0000
  O   O84       1.0  0.36336  0.84662  0.53446  1.0000
  H   H127      1.0  0.36853  0.84364  0.58568  1.0000
  C   C314      1.0  0.46974  0.14832  0.40630  1.0000
  N   N92       1.0  0.48904  0.14427  0.40750  1.0000
  C   C315      1.0  0.52130  0.12274  0.39149  1.0000
  C   C316      1.0  0.54077  0.11750  0.39288  1.0000
  H   H128      1.0  0.53712  0.10063  0.41642  1.0000
  H   H129      1.0  0.45710  0.14144  0.45705  1.0000
  C   C317      1.0  0.49796  0.10427  0.41764  1.0000
  O   O85       1.0  0.49521  0.09709  0.49519  1.0000
  O   O86       1.0  0.48341  0.08907  0.36328  1.0000
  H   H130      1.0  0.48417  0.09131  0.30449  1.0000
  C   C318      1.0  0.68365  0.53659  0.40626  1.0000
  N   N93       1.0  0.66030  0.51728  0.40747  1.0000
  C   C319      1.0  0.60651  0.48502  0.39144  1.0000
  C   C320      1.0  0.58180  0.46556  0.39278  1.0000
  H   H131      1.0  0.56858  0.46921  0.41630  1.0000
  H   H132      1.0  0.68940  0.54923  0.45701  1.0000
  C   C321      1.0  0.61138  0.50836  0.41757  1.0000
  O   O87       1.0  0.60693  0.51111  0.49512  1.0000
  O   O88       1.0  0.61073  0.52291  0.36321  1.0000
  H   H133      1.0  0.61220  0.52215  0.30443  1.0000
  C   C322      1.0  0.85800  0.32267  0.40627  1.0000
  N   N94       1.0  0.86204  0.34602  0.40749  1.0000
  C   C323      1.0  0.88356  0.39981  0.39153  1.0000
  C   C324      1.0  0.88881  0.42453  0.39290  1.0000
  H   H134      1.0  0.90567  0.43775  0.41644  1.0000
  H   H135      1.0  0.86488  0.31692  0.45702  1.0000
  C   C325      1.0  0.90203  0.39495  0.41769  1.0000
  O   O89       1.0  0.90921  0.39939  0.49525  1.0000
  O   O90       1.0  0.91724  0.39560  0.36335  1.0000
  H   H136      1.0  0.91501  0.39414  0.30455  1.0000
  C   C326      1.0  0.97649  0.55516  0.33700  1.0000
  C   C327      1.0  0.95063  0.53966  0.34315  1.0000
  H   H137      1.0  0.93977  0.54740  0.35307  1.0000
  C   C328      1.0  0.98605  0.58045  0.34324  1.0000
  O   O91       1.0  0.99027  0.58915  0.41875  1.0000
  O   O92       1.0  0.99917  0.59478  0.28391  1.0000
  H   H138      1.0  0.99882  0.59060  0.22700  1.0000
  C   C329      1.0  0.42018  0.47059  0.37934  1.0000
  N   N95       1.0  0.43216  0.45765  0.37460  1.0000
  C   C330      1.0  0.45116  0.42259  0.33698  1.0000
  C   C331      1.0  0.46666  0.41224  0.34314  1.0000
  H   H139      1.0  0.45892  0.39364  0.35307  1.0000
  H   H140      1.0  0.40778  0.46676  0.42992  1.0000
  C   C332      1.0  0.42587  0.40687  0.34323  1.0000
  O   O93       1.0  0.41717  0.40238  0.41874  1.0000
  O   O94       1.0  0.41154  0.40565  0.28391  1.0000
  H   H141      1.0  0.41571  0.40947  0.22700  1.0000
  C   C333      1.0  0.53572  0.95085  0.37936  1.0000
  N   N96       1.0  0.54866  0.97576  0.37463  1.0000
  C   C334      1.0  0.58373  0.02982  0.33702  1.0000
  C   C335      1.0  0.59408  0.05568  0.34319  1.0000
  H   H142      1.0  0.61269  0.06654  0.35311  1.0000
  H   H143      1.0  0.53955  0.94227  0.42993  1.0000
  C   C336      1.0  0.59945  0.02026  0.34324  1.0000
  O   O95       1.0  0.60394  0.01604  0.41874  1.0000
  O   O96       1.0  0.60066  0.00714  0.28391  1.0000
  H   H144      1.0  0.59683  0.00749  0.22700  1.0000
