data_image0
_chemical_formula_structural       CNCHNHCNCHNHCNCHNHCNCHNHC4HC6HOHOHC4HC6HOHOHC4HC6HOHOHC4HC6HOHOHC4HC6HOHOHC4HC6HOHOHC4HC6HOHOHC4HC6HOHOHCNCHNHCNCHNHCNCHNHCNCHNHC4HC6HOHOHC4HC6HOHOHC4HC6HOHOHC4HC6HOHOHCNCHNHCNCHNHCNCHNHCNCHNHC4HC6HOHOHC4HC6HOHOHCNCHNHCNCHNHCNCHNHCNCHNHC4HC6HOHOHC4HC6HOHOHC4HC6HOHOHC4HC6HOHOHC4HC6HOHOHC4HC6HOHOHC4HC6HOHOHC4HC6HOHOHCNCHNHCNCHNHCNCHNHCNCHNHC6H3C6H3C6H3C6H3C6H3C6H3C6H3C6H3C6H3C6H3C6H3C6H3C6H3C6H3C6H3C6H3C6H3C6H3C6H3C6H3C6H3C6H3C6H3C6H3C6H3C6H3C6H3C6H3C4HC6HOHOHC4HC6HOHOHC4HC6HOHOHC4HC6HOHOHCNCHNHCNCHNHCNCHNHCNCHNHCNCHNHCNCHNHCNCHNHCNCHNHC4HC6HOHOHC4HC6HOHOHC4HC6HOHOHC4HC6HOHOHCNCHNHCNCHNHCNCHNHCNCHNHC4HC6HOHOHC4HC6HOHOHC4HC6HOHOHC4HC6HOHOHCNCHNHCNCHNHC4HC6HOHOHC4HC6HOHOHC4HC6HOHOHC4HC6HOHOHCNCHNHCNCHNHCNCHNHCNCHNHCNCHNHCNCHNHCNCHNHCNCHNHC4HC6HOHOHC4HC6HOHOHC4HC6HOHOHC4HC6HOHOH
_chemical_formula_sum              "C672 N84 H336 O84"
_cell_length_a       77.5854
_cell_length_b       77.5854
_cell_length_c       14.9082
_cell_angle_alpha    90
_cell_angle_beta     90
_cell_angle_gamma    90

_space_group_name_H-M_alt    "P 1"
_space_group_IT_number       1

loop_
  _space_group_symop_operation_xyz
  'x, y, z'

loop_
  _atom_site_type_symbol
  _atom_site_label
  _atom_site_symmetry_multiplicity
  _atom_site_fract_x
  _atom_site_fract_y
  _atom_site_fract_z
  _atom_site_occupancy
  C   C1        1.0  0.17246  0.15994  0.28800  1.0000
  N   N1        1.0  0.16016  0.14761  0.29352  1.0000
  C   C2        1.0  0.12346  0.10903  0.29138  1.0000
  H   H1        1.0  0.18076  0.15975  0.23470  1.0000
  N   N2        1.0  0.13532  0.12180  0.29527  1.0000
  H   H2        1.0  0.12374  0.10077  0.23797  1.0000
  C   C3        1.0  0.83347  0.84653  0.28804  1.0000
  N   N3        1.0  0.84585  0.85879  0.29351  1.0000
  C   C4        1.0  0.88277  0.89715  0.29120  1.0000
  H   H3        1.0  0.82515  0.84679  0.23486  1.0000
  N   N4        1.0  0.87085  0.88444  0.29511  1.0000
  H   H4        1.0  0.88252  0.90543  0.23783  1.0000
  C   C5        1.0  0.84646  0.17252  0.28794  1.0000
  N   N5        1.0  0.85876  0.16018  0.29346  1.0000
  C   C6        1.0  0.89722  0.12337  0.29124  1.0000
  H   H5        1.0  0.84668  0.18083  0.23471  1.0000
  N   N6        1.0  0.88448  0.13527  0.29515  1.0000
  H   H6        1.0  0.90549  0.12363  0.23786  1.0000
  C   C7        1.0  0.15987  0.83354  0.28804  1.0000
  N   N7        1.0  0.14757  0.84588  0.29354  1.0000
  C   C8        1.0  0.10910  0.88269  0.29129  1.0000
  H   H7        1.0  0.15966  0.82524  0.23478  1.0000
  N   N8        1.0  0.12184  0.87079  0.29520  1.0000
  H   H8        1.0  0.10083  0.88243  0.23789  1.0000
  C   C9        1.0  0.09195  0.95667  0.32836  1.0000
  C   C10       1.0  0.09520  0.99268  0.32044  1.0000
  C   C11       1.0  0.09130  0.98347  0.24053  1.0000
  C   C12       1.0  0.08972  0.96536  0.24595  1.0000
  H   H9        1.0  0.08614  0.95845  0.19049  1.0000
  C   C13       1.0  0.09549  0.01086  0.31989  1.0000
  C   C14       1.0  0.09341  0.04697  0.32569  1.0000
  C   C15       1.0  0.09085  0.03818  0.24383  1.0000
  C   C16       1.0  0.09188  0.02002  0.23945  1.0000
  C   C17       1.0  0.08861  0.01081  0.15926  1.0000
  C   C18       1.0  0.08833  0.99261  0.15979  1.0000
  H   H10       1.0  0.08745  0.04509  0.18807  1.0000
  O   O1        1.0  0.08563  0.01923  0.08055  1.0000
  H   H11       1.0  0.07307  0.02075  0.07635  1.0000
  O   O2        1.0  0.08510  0.98412  0.08155  1.0000
  H   H12       1.0  0.07250  0.98297  0.07743  1.0000
  C   C19       1.0  0.91438  0.04940  0.32860  1.0000
  C   C20       1.0  0.91113  0.01339  0.32069  1.0000
  C   C21       1.0  0.91496  0.02260  0.24071  1.0000
  C   C22       1.0  0.91654  0.04071  0.24612  1.0000
  H   H13       1.0  0.92008  0.04762  0.19061  1.0000
  C   C23       1.0  0.91085  0.99521  0.32010  1.0000
  C   C24       1.0  0.91294  0.95911  0.32586  1.0000
  C   C25       1.0  0.91544  0.96789  0.24395  1.0000
  C   C26       1.0  0.91440  0.98606  0.23960  1.0000
  C   C27       1.0  0.91761  0.99527  0.15935  1.0000
  C   C28       1.0  0.91788  0.01347  0.15990  1.0000
  H   H14       1.0  0.91881  0.96099  0.18813  1.0000
  O   O3        1.0  0.92054  0.98685  0.08058  1.0000
  H   H15       1.0  0.93310  0.98533  0.07613  1.0000
  O   O4        1.0  0.92106  0.02196  0.08162  1.0000
  H   H16       1.0  0.93366  0.02312  0.07725  1.0000
  C   C29       1.0  0.04952  0.09179  0.32871  1.0000
  C   C30       1.0  0.01351  0.09504  0.32078  1.0000
  C   C31       1.0  0.02272  0.09120  0.24081  1.0000
  C   C32       1.0  0.04083  0.08960  0.24626  1.0000
  H   H17       1.0  0.04774  0.08609  0.19071  1.0000
  C   C33       1.0  0.99533  0.09533  0.32019  1.0000
  C   C34       1.0  0.95923  0.09326  0.32592  1.0000
  C   C35       1.0  0.96800  0.09076  0.24399  1.0000
  C   C36       1.0  0.98617  0.09178  0.23968  1.0000
  C   C37       1.0  0.99539  0.08857  0.15943  1.0000
  C   C38       1.0  0.01359  0.08828  0.15999  1.0000
  H   H18       1.0  0.96111  0.08739  0.18816  1.0000
  O   O5        1.0  0.98697  0.08565  0.08065  1.0000
  H   H19       1.0  0.98544  0.07309  0.07620  1.0000
  O   O6        1.0  0.02208  0.08510  0.08172  1.0000
  H   H20       1.0  0.02323  0.07250  0.07737  1.0000
  C   C39       1.0  0.95679  0.91424  0.32853  1.0000
  C   C40       1.0  0.99280  0.91101  0.32054  1.0000
  C   C41       1.0  0.98358  0.91488  0.24063  1.0000
  C   C42       1.0  0.96547  0.91646  0.24609  1.0000
  H   H21       1.0  0.95856  0.92001  0.19061  1.0000
  C   C43       1.0  0.01098  0.91073  0.31992  1.0000
  C   C44       1.0  0.04708  0.91282  0.32561  1.0000
  C   C45       1.0  0.03829  0.91536  0.24377  1.0000
  C   C46       1.0  0.02013  0.91432  0.23944  1.0000
  C   C47       1.0  0.01091  0.91756  0.15925  1.0000
  C   C48       1.0  0.99271  0.91783  0.15983  1.0000
  H   H22       1.0  0.04519  0.91874  0.18794  1.0000
  O   O7        1.0  0.01932  0.92053  0.08049  1.0000
  H   H23       1.0  0.02084  0.93309  0.07621  1.0000
  O   O8        1.0  0.98421  0.92105  0.08161  1.0000
  H   H24       1.0  0.98305  0.93364  0.07741  1.0000
  C   C49       1.0  0.15927  0.31980  0.33906  1.0000
  C   C50       1.0  0.17045  0.28530  0.33369  1.0000
  C   C51       1.0  0.16357  0.29287  0.25456  1.0000
  C   C52       1.0  0.15794  0.31023  0.25874  1.0000
  H   H25       1.0  0.15361  0.31625  0.20199  1.0000
  C   C53       1.0  0.17663  0.26819  0.33262  1.0000
  C   C54       1.0  0.18896  0.23410  0.33476  1.0000
  C   C55       1.0  0.18188  0.24107  0.25534  1.0000
  C   C56       1.0  0.17582  0.25828  0.25254  1.0000
  C   C57       1.0  0.16908  0.26586  0.17354  1.0000
  C   C58       1.0  0.16307  0.28307  0.17444  1.0000
  H   H26       1.0  0.18122  0.23352  0.19919  1.0000
  O   O9        1.0  0.16804  0.25672  0.09571  1.0000
  H   H27       1.0  0.17901  0.25861  0.06411  1.0000
  O   O10       1.0  0.15651  0.28987  0.09742  1.0000
  H   H28       1.0  0.16631  0.29506  0.06542  1.0000
  C   C59       1.0  0.84634  0.68669  0.34139  1.0000
  C   C60       1.0  0.83520  0.72120  0.33523  1.0000
  C   C61       1.0  0.84217  0.71358  0.25640  1.0000
  C   C62       1.0  0.84779  0.69622  0.26099  1.0000
  H   H29       1.0  0.85218  0.69017  0.20446  1.0000
  C   C63       1.0  0.82903  0.73831  0.33374  1.0000
  C   C64       1.0  0.81675  0.77241  0.33512  1.0000
  C   C65       1.0  0.82390  0.76540  0.25599  1.0000
  C   C66       1.0  0.82995  0.74818  0.25357  1.0000
  C   C67       1.0  0.83677  0.74056  0.17486  1.0000
  C   C68       1.0  0.84276  0.72335  0.17617  1.0000
  H   H30       1.0  0.82464  0.77293  0.19978  1.0000
  O   O11       1.0  0.83790  0.74966  0.09695  1.0000
  H   H31       1.0  0.82696  0.74777  0.06506  1.0000
  O   O12       1.0  0.84940  0.71650  0.09944  1.0000
  H   H32       1.0  0.83964  0.71129  0.06722  1.0000
  C   C69       1.0  0.68653  0.15980  0.34126  1.0000
  C   C70       1.0  0.72106  0.17085  0.33517  1.0000
  C   C71       1.0  0.71343  0.16394  0.25628  1.0000
  C   C72       1.0  0.69605  0.15837  0.26080  1.0000
  H   H33       1.0  0.69000  0.15398  0.20428  1.0000
  C   C73       1.0  0.73820  0.17696  0.33375  1.0000
  C   C74       1.0  0.77232  0.18915  0.33527  1.0000
  C   C75       1.0  0.76529  0.18205  0.25605  1.0000
  C   C76       1.0  0.74806  0.17605  0.25357  1.0000
  C   C77       1.0  0.74042  0.16928  0.17479  1.0000
  C   C78       1.0  0.72319  0.16334  0.17604  1.0000
  H   H34       1.0  0.77282  0.18132  0.19982  1.0000
  O   O13       1.0  0.74952  0.16816  0.09686  1.0000
  H   H35       1.0  0.74765  0.17911  0.06509  1.0000
  O   O14       1.0  0.71632  0.15676  0.09923  1.0000
  H   H36       1.0  0.71114  0.16655  0.06712  1.0000
  C   C79       1.0  0.31966  0.84685  0.33933  1.0000
  C   C80       1.0  0.28518  0.83559  0.33381  1.0000
  C   C81       1.0  0.29276  0.84247  0.25469  1.0000
  C   C82       1.0  0.31010  0.84814  0.25893  1.0000
  H   H37       1.0  0.31612  0.85247  0.20220  1.0000
  C   C83       1.0  0.26808  0.82936  0.33266  1.0000
  C   C84       1.0  0.23402  0.81697  0.33466  1.0000
  C   C85       1.0  0.24100  0.82404  0.25524  1.0000
  C   C86       1.0  0.25819  0.83014  0.25251  1.0000
  C   C87       1.0  0.26578  0.83688  0.17353  1.0000
  C   C88       1.0  0.28297  0.84293  0.17451  1.0000
  H   H38       1.0  0.23345  0.82468  0.19905  1.0000
  O   O15       1.0  0.25665  0.83789  0.09564  1.0000
  H   H39       1.0  0.25857  0.82692  0.06409  1.0000
  O   O16       1.0  0.28977  0.84950  0.09750  1.0000
  H   H40       1.0  0.29500  0.83971  0.06557  1.0000
  C   C89       1.0  0.83774  0.31207  0.26449  1.0000
  N   N9        1.0  0.83264  0.29544  0.27121  1.0000
  C   C90       1.0  0.81458  0.24525  0.27543  1.0000
  H   H41       1.0  0.83507  0.31862  0.20662  1.0000
  N   N10       1.0  0.82068  0.26162  0.27713  1.0000
  H   H42       1.0  0.80885  0.24082  0.21815  1.0000
  C   C91       1.0  0.16815  0.69415  0.26237  1.0000
  N   N11       1.0  0.17335  0.71076  0.26940  1.0000
  C   C92       1.0  0.19171  0.76085  0.27471  1.0000
  H   H43       1.0  0.17077  0.68763  0.20434  1.0000
  N   N12       1.0  0.18552  0.74451  0.27604  1.0000
  H   H44       1.0  0.19743  0.76531  0.21744  1.0000
  C   C93       1.0  0.31192  0.16863  0.26444  1.0000
  N   N13       1.0  0.29530  0.17376  0.27121  1.0000
  C   C94       1.0  0.24515  0.19194  0.27570  1.0000
  H   H45       1.0  0.31848  0.17130  0.20659  1.0000
  N   N14       1.0  0.26151  0.18580  0.27731  1.0000
  H   H46       1.0  0.24074  0.19771  0.21849  1.0000
  C   C95       1.0  0.69399  0.83820  0.26231  1.0000
  N   N15       1.0  0.71061  0.83305  0.26930  1.0000
  C   C96       1.0  0.76075  0.81484  0.27436  1.0000
  H   H47       1.0  0.68748  0.83561  0.20421  1.0000
  N   N16       1.0  0.74439  0.82098  0.27578  1.0000
  H   H48       1.0  0.76523  0.80916  0.21702  1.0000
  C   C97       1.0  0.37062  0.12127  0.33545  1.0000
  C   C98       1.0  0.38306  0.08683  0.32642  1.0000
  C   C99       1.0  0.38869  0.09910  0.26184  1.0000
  C   C100      1.0  0.38240  0.11621  0.26789  1.0000
  H   H49       1.0  0.38609  0.12507  0.22083  1.0000
  C   C101      1.0  0.38933  0.06966  0.32374  1.0000
  C   C102      1.0  0.40298  0.03567  0.32503  1.0000
  C   C103      1.0  0.40792  0.04769  0.25831  1.0000
  C   C104      1.0  0.40131  0.06470  0.25638  1.0000
  C   C105      1.0  0.40656  0.07684  0.19096  1.0000
  C   C106      1.0  0.40029  0.09392  0.19364  1.0000
  H   H50       1.0  0.41680  0.04404  0.21124  1.0000
  O   O17       1.0  0.41824  0.07258  0.12641  1.0000
  H   H51       1.0  0.41152  0.06814  0.07546  1.0000
  O   O18       1.0  0.40613  0.10537  0.13139  1.0000
  H   H52       1.0  0.39807  0.10471  0.08061  1.0000
  C   C107      1.0  0.63517  0.88540  0.33234  1.0000
  C   C108      1.0  0.62278  0.91985  0.32292  1.0000
  C   C109      1.0  0.61700  0.90753  0.25899  1.0000
  C   C110      1.0  0.62327  0.89041  0.26524  1.0000
  H   H53       1.0  0.61950  0.88151  0.21854  1.0000
  C   C111      1.0  0.61655  0.93704  0.32001  1.0000
  C   C112      1.0  0.60302  0.97110  0.32098  1.0000
  C   C113      1.0  0.59794  0.95902  0.25478  1.0000
  C   C114      1.0  0.60448  0.94198  0.25306  1.0000
  C   C115      1.0  0.59907  0.92976  0.18832  1.0000
  C   C116      1.0  0.60529  0.91267  0.19124  1.0000
  H   H54       1.0  0.58902  0.96265  0.20792  1.0000
  O   O19       1.0  0.58727  0.93399  0.12427  1.0000
  H   H55       1.0  0.59390  0.93833  0.07277  1.0000
  O   O20       1.0  0.59929  0.90116  0.12967  1.0000
  H   H56       1.0  0.60725  0.90174  0.07843  1.0000
  C   C117      1.0  0.88494  0.37084  0.33568  1.0000
  C   C118      1.0  0.91938  0.38325  0.32653  1.0000
  C   C119      1.0  0.90712  0.38886  0.26188  1.0000
  C   C120      1.0  0.89000  0.38258  0.26795  1.0000
  H   H57       1.0  0.88115  0.38625  0.22085  1.0000
  C   C121      1.0  0.93655  0.38951  0.32382  1.0000
  C   C122      1.0  0.97054  0.40315  0.32507  1.0000
  C   C123      1.0  0.95853  0.40807  0.25825  1.0000
  C   C124      1.0  0.94152  0.40147  0.25636  1.0000
  C   C125      1.0  0.92938  0.40669  0.19084  1.0000
  C   C126      1.0  0.91231  0.40042  0.19355  1.0000
  H   H58       1.0  0.96219  0.41694  0.21112  1.0000
  O   O21       1.0  0.93366  0.41834  0.12615  1.0000
  H   H59       1.0  0.93810  0.41160  0.07529  1.0000
  O   O22       1.0  0.90086  0.40624  0.13119  1.0000
  H   H60       1.0  0.90153  0.39815  0.08051  1.0000
  C   C127      1.0  0.12078  0.63541  0.33217  1.0000
  C   C128      1.0  0.08633  0.62299  0.32282  1.0000
  C   C129      1.0  0.09866  0.61720  0.25896  1.0000
  C   C130      1.0  0.11578  0.62349  0.26516  1.0000
  H   H61       1.0  0.12468  0.61969  0.21854  1.0000
  C   C131      1.0  0.06915  0.61676  0.31993  1.0000
  C   C132      1.0  0.03508  0.60323  0.32090  1.0000
  C   C133      1.0  0.04718  0.59812  0.25483  1.0000
  C   C134      1.0  0.06421  0.60466  0.25309  1.0000
  C   C135      1.0  0.07644  0.59923  0.18843  1.0000
  C   C136      1.0  0.09353  0.60547  0.19131  1.0000
  H   H62       1.0  0.04355  0.58919  0.20800  1.0000
  O   O23       1.0  0.07223  0.58741  0.12450  1.0000
  H   H63       1.0  0.06789  0.59401  0.07291  1.0000
  O   O24       1.0  0.10505  0.59945  0.12985  1.0000
  H   H64       1.0  0.10447  0.60739  0.07851  1.0000
  C   C137      1.0  0.64113  0.10795  0.28443  1.0000
  N   N17       1.0  0.63476  0.09167  0.29084  1.0000
  C   C138      1.0  0.61587  0.04100  0.29415  1.0000
  H   H65       1.0  0.64967  0.11060  0.23412  1.0000
  N   N18       1.0  0.62198  0.05744  0.29625  1.0000
  H   H66       1.0  0.61982  0.03306  0.24348  1.0000
  C   C139      1.0  0.36514  0.89862  0.28028  1.0000
  N   N19       1.0  0.37155  0.91489  0.28623  1.0000
  C   C140      1.0  0.39047  0.96564  0.28908  1.0000
  H   H67       1.0  0.35652  0.89597  0.23030  1.0000
  N   N20       1.0  0.38438  0.94918  0.29114  1.0000
  H   H68       1.0  0.38644  0.97361  0.23869  1.0000
  C   C141      1.0  0.10757  0.36532  0.28003  1.0000
  N   N21       1.0  0.09129  0.37172  0.28603  1.0000
  C   C142      1.0  0.04056  0.39065  0.28896  1.0000
  H   H69       1.0  0.11022  0.35672  0.22997  1.0000
  N   N22       1.0  0.05701  0.38456  0.29102  1.0000
  H   H70       1.0  0.03259  0.38664  0.23851  1.0000
  C   C143      1.0  0.89822  0.64131  0.28457  1.0000
  N   N23       1.0  0.91450  0.63495  0.29097  1.0000
  C   C144      1.0  0.96518  0.61605  0.29428  1.0000
  H   H71       1.0  0.89558  0.64988  0.23435  1.0000
  N   N24       1.0  0.94874  0.62216  0.29637  1.0000
  H   H72       1.0  0.97313  0.62003  0.24367  1.0000
  C   C145      1.0  0.54853  0.00368  0.33109  1.0000
  C   C146      1.0  0.51210  0.00376  0.32654  1.0000
  C   C147      1.0  0.52131  0.99491  0.25819  1.0000
  C   C148      1.0  0.53954  0.99497  0.26201  1.0000
  H   H73       1.0  0.54642  0.98876  0.21321  1.0000
  C   C149      1.0  0.49388  0.00370  0.32676  1.0000
  C   C150      1.0  0.45751  0.00346  0.33209  1.0000
  C   C151      1.0  0.46642  0.99463  0.26331  1.0000
  C   C152      1.0  0.48465  0.99473  0.25889  1.0000
  C   C153      1.0  0.49387  0.98629  0.18964  1.0000
  C   C154      1.0  0.51208  0.98640  0.18922  1.0000
  H   H74       1.0  0.45949  0.98828  0.21518  1.0000
  O   O25       1.0  0.48545  0.97754  0.12364  1.0000
  H   H75       1.0  0.48340  0.98591  0.07523  1.0000
  O   O26       1.0  0.52049  0.97774  0.12289  1.0000
  H   H76       1.0  0.52239  0.98613  0.07443  1.0000
  C   C155      1.0  0.00254  0.54870  0.33119  1.0000
  C   C156      1.0  0.00247  0.51227  0.32662  1.0000
  C   C157      1.0  0.01132  0.52148  0.25831  1.0000
  C   C158      1.0  0.01126  0.53972  0.26215  1.0000
  H   H77       1.0  0.01747  0.54660  0.21334  1.0000
  C   C159      1.0  0.00251  0.49405  0.32681  1.0000
  C   C160      1.0  0.00275  0.45769  0.33209  1.0000
  C   C161      1.0  0.01160  0.46660  0.26336  1.0000
  C   C162      1.0  0.01149  0.48483  0.25896  1.0000
  C   C163      1.0  0.01995  0.49405  0.18976  1.0000
  C   C164      1.0  0.01984  0.51226  0.18936  1.0000
  H   H78       1.0  0.01795  0.45967  0.21524  1.0000
  O   O27       1.0  0.02870  0.48563  0.12378  1.0000
  H   H79       1.0  0.02034  0.48358  0.07534  1.0000
  O   O28       1.0  0.02851  0.52067  0.12307  1.0000
  H   H80       1.0  0.02013  0.52257  0.07458  1.0000
  C   C165      1.0  0.25715  0.41364  0.28725  1.0000
  N   N25       1.0  0.24077  0.40764  0.29489  1.0000
  C   C166      1.0  0.19038  0.38830  0.29709  1.0000
  H   H81       1.0  0.26025  0.42107  0.23298  1.0000
  N   N26       1.0  0.20667  0.39477  0.30011  1.0000
  H   H82       1.0  0.18297  0.39079  0.24192  1.0000
  C   C167      1.0  0.74865  0.59289  0.28762  1.0000
  N   N27       1.0  0.76503  0.59890  0.29559  1.0000
  C   C168      1.0  0.81539  0.61826  0.29879  1.0000
  H   H83       1.0  0.74556  0.58556  0.23297  1.0000
  N   N28       1.0  0.79911  0.61178  0.30147  1.0000
  H   H84       1.0  0.82281  0.61588  0.24349  1.0000
  C   C169      1.0  0.59265  0.25748  0.28791  1.0000
  N   N29       1.0  0.59868  0.24110  0.29581  1.0000
  C   C170      1.0  0.61808  0.19076  0.29888  1.0000
  H   H85       1.0  0.58530  0.26056  0.23332  1.0000
  N   N30       1.0  0.61159  0.20704  0.30159  1.0000
  H   H86       1.0  0.61567  0.18333  0.24367  1.0000
  C   C171      1.0  0.41338  0.74897  0.28690  1.0000
  N   N31       1.0  0.40740  0.76536  0.29458  1.0000
  C   C172      1.0  0.38813  0.81578  0.29699  1.0000
  H   H87       1.0  0.42078  0.74586  0.23254  1.0000
  N   N32       1.0  0.39457  0.79947  0.29990  1.0000
  H   H88       1.0  0.39057  0.82317  0.24167  1.0000
  C   C173      1.0  0.73577  0.40945  0.32510  1.0000
  C   C174      1.0  0.77031  0.39800  0.31210  1.0000
  C   C175      1.0  0.75844  0.39367  0.24295  1.0000
  C   C176      1.0  0.74118  0.39940  0.25114  1.0000
  H   H89       1.0  0.73243  0.39645  0.20213  1.0000
  C   C177      1.0  0.78749  0.39186  0.30872  1.0000
  C   C178      1.0  0.82108  0.37766  0.31078  1.0000
  C   C179      1.0  0.80979  0.37444  0.23812  1.0000
  C   C180      1.0  0.79293  0.38139  0.23578  1.0000
  C   C181      1.0  0.78126  0.37765  0.16536  1.0000
  C   C182      1.0  0.76413  0.38374  0.16895  1.0000
  H   H90       1.0  0.81366  0.36621  0.18843  1.0000
  O   O29       1.0  0.78600  0.36746  0.09513  1.0000
  H   H91       1.0  0.79092  0.37523  0.04974  1.0000
  O   O30       1.0  0.75308  0.37923  0.10192  1.0000
  H   H92       1.0  0.75387  0.38842  0.05665  1.0000
  C   C183      1.0  0.27010  0.59695  0.32478  1.0000
  C   C184      1.0  0.23553  0.60832  0.31117  1.0000
  C   C185      1.0  0.24742  0.61261  0.24205  1.0000
  C   C186      1.0  0.26470  0.60693  0.25057  1.0000
  H   H93       1.0  0.27346  0.60985  0.20157  1.0000
  C   C187      1.0  0.21834  0.61442  0.30742  1.0000
  C   C188      1.0  0.18470  0.62855  0.30867  1.0000
  C   C189      1.0  0.19604  0.63173  0.23615  1.0000
  C   C190      1.0  0.21291  0.62481  0.23415  1.0000
  C   C191      1.0  0.22460  0.62851  0.16380  1.0000
  C   C192      1.0  0.24175  0.62247  0.16776  1.0000
  H   H94       1.0  0.19216  0.63990  0.18618  1.0000
  O   O31       1.0  0.21988  0.63864  0.09330  1.0000
  H   H95       1.0  0.21499  0.63083  0.04801  1.0000
  O   O32       1.0  0.25282  0.62694  0.10076  1.0000
  H   H96       1.0  0.25207  0.61772  0.05569  1.0000
  C   C193      1.0  0.40925  0.27046  0.32500  1.0000
  C   C194      1.0  0.39784  0.23589  0.31197  1.0000
  C   C195      1.0  0.39357  0.24774  0.24264  1.0000
  C   C196      1.0  0.39927  0.26502  0.25086  1.0000
  H   H97       1.0  0.39635  0.27376  0.20174  1.0000
  C   C197      1.0  0.39172  0.21871  0.30856  1.0000
  C   C198      1.0  0.37752  0.18512  0.31058  1.0000
  C   C199      1.0  0.37437  0.19639  0.23778  1.0000
  C   C200      1.0  0.38132  0.21325  0.23543  1.0000
  C   C201      1.0  0.37763  0.22489  0.16484  1.0000
  C   C202      1.0  0.38371  0.24204  0.16846  1.0000
  H   H98       1.0  0.36617  0.19250  0.18795  1.0000
  O   O33       1.0  0.36749  0.22014  0.09443  1.0000
  H   H99       1.0  0.37530  0.21520  0.04924  1.0000
  O   O34       1.0  0.37924  0.25307  0.10125  1.0000
  H   H100      1.0  0.38847  0.25227  0.05620  1.0000
  C   C203      1.0  0.59673  0.73610  0.32469  1.0000
  C   C204      1.0  0.60814  0.77066  0.31114  1.0000
  C   C205      1.0  0.61248  0.75875  0.24221  1.0000
  C   C206      1.0  0.60678  0.74148  0.25070  1.0000
  H   H101      1.0  0.60974  0.73271  0.20181  1.0000
  C   C207      1.0  0.61425  0.78785  0.30742  1.0000
  C   C208      1.0  0.62838  0.82147  0.30877  1.0000
  C   C209      1.0  0.63161  0.81013  0.23635  1.0000
  C   C210      1.0  0.62470  0.79326  0.23435  1.0000
  C   C211      1.0  0.62846  0.78154  0.16418  1.0000
  C   C212      1.0  0.62241  0.76440  0.16813  1.0000
  H   H102      1.0  0.63984  0.81398  0.18658  1.0000
  O   O35       1.0  0.63865  0.78624  0.09387  1.0000
  H   H103      1.0  0.63087  0.79112  0.04837  1.0000
  O   O36       1.0  0.62694  0.75331  0.10130  1.0000
  H   H104      1.0  0.61775  0.75405  0.05600  1.0000
  C   C213      1.0  0.31095  0.54883  0.34393  1.0000
  C   C214      1.0  0.31182  0.51237  0.34053  1.0000
  C   C215      1.0  0.31302  0.52165  0.25847  1.0000
  C   C216      1.0  0.31258  0.53992  0.26167  1.0000
  H   H105      1.0  0.31290  0.54686  0.20333  1.0000
  C   C217      1.0  0.31173  0.49411  0.34018  1.0000
  C   C218      1.0  0.31051  0.45765  0.34236  1.0000
  C   C219      1.0  0.31223  0.46663  0.26038  1.0000
  C   C220      1.0  0.31283  0.48490  0.25781  1.0000
  C   C221      1.0  0.31400  0.49421  0.17630  1.0000
  C   C222      1.0  0.31409  0.51244  0.17662  1.0000
  H   H106      1.0  0.31249  0.45975  0.20186  1.0000
  O   O37       1.0  0.31524  0.48584  0.09622  1.0000
  H   H107      1.0  0.30337  0.48431  0.07446  1.0000
  O   O38       1.0  0.31542  0.52090  0.09683  1.0000
  H   H108      1.0  0.30357  0.52256  0.07508  1.0000
  C   C223      1.0  0.69494  0.45760  0.34370  1.0000
  C   C224      1.0  0.69405  0.49405  0.34026  1.0000
  C   C225      1.0  0.69295  0.48477  0.25817  1.0000
  C   C226      1.0  0.69339  0.46650  0.26139  1.0000
  H   H109      1.0  0.69314  0.45956  0.20304  1.0000
  C   C227      1.0  0.69414  0.51231  0.33989  1.0000
  C   C228      1.0  0.69533  0.54876  0.34210  1.0000
  C   C229      1.0  0.69371  0.53978  0.26007  1.0000
  C   C230      1.0  0.69311  0.52151  0.25750  1.0000
  C   C231      1.0  0.69204  0.51220  0.17595  1.0000
  C   C232      1.0  0.69196  0.49398  0.17628  1.0000
  H   H110      1.0  0.69349  0.54667  0.20155  1.0000
  O   O39       1.0  0.69086  0.52057  0.09583  1.0000
  H   H111      1.0  0.70276  0.52211  0.07439  1.0000
  O   O40       1.0  0.69070  0.48552  0.09646  1.0000
  H   H112      1.0  0.70258  0.48386  0.07503  1.0000
  C   C233      1.0  0.45737  0.31131  0.34360  1.0000
  C   C234      1.0  0.49382  0.31215  0.34023  1.0000
  C   C235      1.0  0.48455  0.31321  0.25809  1.0000
  C   C236      1.0  0.46628  0.31279  0.26128  1.0000
  H   H113      1.0  0.45934  0.31298  0.20292  1.0000
  C   C237      1.0  0.51209  0.31204  0.33991  1.0000
  C   C238      1.0  0.54853  0.31081  0.34222  1.0000
  C   C239      1.0  0.53956  0.31238  0.26013  1.0000
  C   C240      1.0  0.52129  0.31299  0.25751  1.0000
  C   C241      1.0  0.51199  0.31401  0.17592  1.0000
  C   C242      1.0  0.49377  0.31412  0.17621  1.0000
  H   H114      1.0  0.54645  0.31254  0.20162  1.0000
  O   O41       1.0  0.52037  0.31512  0.09579  1.0000
  H   H115      1.0  0.52189  0.30321  0.07460  1.0000
  O   O42       1.0  0.48531  0.31532  0.09634  1.0000
  H   H116      1.0  0.48365  0.30343  0.07514  1.0000
  C   C243      1.0  0.54859  0.69524  0.34380  1.0000
  C   C244      1.0  0.51213  0.69436  0.34044  1.0000
  C   C245      1.0  0.52141  0.69314  0.25839  1.0000
  C   C246      1.0  0.53968  0.69358  0.26157  1.0000
  H   H117      1.0  0.54661  0.69327  0.20322  1.0000
  C   C247      1.0  0.49386  0.69444  0.34010  1.0000
  C   C248      1.0  0.45741  0.69563  0.34231  1.0000
  C   C249      1.0  0.46639  0.69389  0.26033  1.0000
  C   C250      1.0  0.48466  0.69331  0.25776  1.0000
  C   C251      1.0  0.49397  0.69213  0.17624  1.0000
  C   C252      1.0  0.51219  0.69205  0.17655  1.0000
  H   H118      1.0  0.45950  0.69361  0.20182  1.0000
  O   O43       1.0  0.48559  0.69086  0.09617  1.0000
  H   H119      1.0  0.48406  0.70272  0.07434  1.0000
  O   O44       1.0  0.52065  0.69070  0.09675  1.0000
  H   H120      1.0  0.52231  0.70255  0.07494  1.0000
  C   C253      1.0  0.33481  0.38600  0.27158  1.0000
  N   N33       1.0  0.34756  0.37400  0.27416  1.0000
  C   C254      1.0  0.38541  0.33564  0.26769  1.0000
  H   H121      1.0  0.32713  0.38662  0.21594  1.0000
  N   N34       1.0  0.37336  0.34833  0.27215  1.0000
  H   H122      1.0  0.38589  0.32814  0.21138  1.0000
  C   C255      1.0  0.67101  0.62039  0.27141  1.0000
  N   N35       1.0  0.65828  0.63241  0.27401  1.0000
  C   C256      1.0  0.62051  0.67085  0.26760  1.0000
  H   H123      1.0  0.67866  0.61974  0.21569  1.0000
  N   N36       1.0  0.63253  0.65814  0.27205  1.0000
  H   H124      1.0  0.62000  0.67833  0.21121  1.0000
  C   C257      1.0  0.62009  0.33518  0.27144  1.0000
  N   N37       1.0  0.63210  0.34792  0.27402  1.0000
  C   C258      1.0  0.67049  0.38573  0.26750  1.0000
  H   H125      1.0  0.61940  0.32757  0.21559  1.0000
  N   N38       1.0  0.65780  0.37369  0.27201  1.0000
  H   H126      1.0  0.67794  0.38628  0.21099  1.0000
  C   C259      1.0  0.38568  0.67139  0.27161  1.0000
  N   N39       1.0  0.37367  0.65865  0.27418  1.0000
  C   C260      1.0  0.33526  0.62084  0.26781  1.0000
  H   H127      1.0  0.38625  0.67911  0.21612  1.0000
  N   N40       1.0  0.34797  0.63287  0.27222  1.0000
  H   H128      1.0  0.32772  0.62040  0.21164  1.0000
  C   C261      1.0  0.08924  0.06463  0.33321  1.0000
  C   C262      1.0  0.07181  0.06971  0.32818  1.0000
  C   C263      1.0  0.06708  0.08720  0.33653  1.0000
  C   C264      1.0  0.08002  0.09971  0.34961  1.0000
  C   C265      1.0  0.09762  0.09491  0.35235  1.0000
  C   C266      1.0  0.10209  0.07729  0.34488  1.0000
  H   H129      1.0  0.07665  0.11246  0.35303  1.0000
  H   H130      1.0  0.11476  0.07365  0.34721  1.0000
  H   H131      1.0  0.06244  0.06055  0.31933  1.0000
  C   C267      1.0  0.91709  0.94144  0.33330  1.0000
  C   C268      1.0  0.93451  0.93634  0.32823  1.0000
  C   C269      1.0  0.93923  0.91885  0.33646  1.0000
  C   C270      1.0  0.92627  0.90634  0.34955  1.0000
  C   C271      1.0  0.90868  0.91116  0.35218  1.0000
  C   C272      1.0  0.90423  0.92879  0.34484  1.0000
  H   H132      1.0  0.92963  0.89359  0.35271  1.0000
  H   H133      1.0  0.89156  0.93245  0.34715  1.0000
  H   H134      1.0  0.94390  0.94549  0.31940  1.0000
  C   C273      1.0  0.94156  0.08910  0.33331  1.0000
  C   C274      1.0  0.93646  0.07168  0.32822  1.0000
  C   C275      1.0  0.91898  0.06695  0.33649  1.0000
  C   C276      1.0  0.90647  0.07991  0.34959  1.0000
  C   C277      1.0  0.91128  0.09750  0.35224  1.0000
  C   C278      1.0  0.92891  0.10195  0.34488  1.0000
  H   H135      1.0  0.89372  0.07654  0.35279  1.0000
  H   H136      1.0  0.93256  0.11463  0.34721  1.0000
  H   H137      1.0  0.94562  0.06229  0.31942  1.0000
  C   C279      1.0  0.06475  0.91697  0.33313  1.0000
  C   C280      1.0  0.06986  0.93439  0.32796  1.0000
  C   C281      1.0  0.08734  0.93911  0.33631  1.0000
  C   C282      1.0  0.09984  0.92615  0.34952  1.0000
  C   C283      1.0  0.09503  0.90856  0.35226  1.0000
  C   C284      1.0  0.07740  0.90411  0.34481  1.0000
  H   H138      1.0  0.11259  0.92952  0.35283  1.0000
  H   H139      1.0  0.07374  0.89144  0.34718  1.0000
  H   H140      1.0  0.06070  0.94377  0.31909  1.0000
  C   C285      1.0  0.18615  0.18602  0.34888  1.0000
  C   C286      1.0  0.20381  0.18163  0.35076  1.0000
  C   C287      1.0  0.21670  0.19447  0.34737  1.0000
  C   C288      1.0  0.21172  0.21197  0.34115  1.0000
  C   C289      1.0  0.19411  0.21662  0.33918  1.0000
  C   C290      1.0  0.18144  0.20357  0.34343  1.0000
  H   H141      1.0  0.22097  0.22138  0.33894  1.0000
  H   H142      1.0  0.16865  0.20688  0.34221  1.0000
  H   H143      1.0  0.20731  0.16892  0.35538  1.0000
  C   C291      1.0  0.81968  0.82049  0.34882  1.0000
  C   C292      1.0  0.80204  0.82493  0.35034  1.0000
  C   C293      1.0  0.78911  0.81212  0.34680  1.0000
  C   C294      1.0  0.79404  0.79460  0.34087  1.0000
  C   C295      1.0  0.81164  0.78991  0.33923  1.0000
  C   C296      1.0  0.82435  0.80292  0.34356  1.0000
  H   H144      1.0  0.78477  0.78522  0.33858  1.0000
  H   H145      1.0  0.83713  0.79958  0.34257  1.0000
  H   H146      1.0  0.79856  0.83764  0.35481  1.0000
  C   C297      1.0  0.82040  0.18626  0.34881  1.0000
  C   C298      1.0  0.82482  0.20391  0.35059  1.0000
  C   C299      1.0  0.81199  0.21682  0.34723  1.0000
  C   C300      1.0  0.79448  0.21187  0.34124  1.0000
  C   C301      1.0  0.78981  0.19426  0.33936  1.0000
  C   C302      1.0  0.80284  0.18157  0.34350  1.0000
  H   H147      1.0  0.78509  0.22113  0.33911  1.0000
  H   H148      1.0  0.79951  0.16879  0.34239  1.0000
  H   H149      1.0  0.83753  0.20740  0.35510  1.0000
  C   C303      1.0  0.18594  0.81981  0.34888  1.0000
  C   C304      1.0  0.18153  0.80215  0.35052  1.0000
  C   C305      1.0  0.19437  0.78925  0.34693  1.0000
  C   C306      1.0  0.21187  0.79421  0.34079  1.0000
  C   C307      1.0  0.21653  0.81182  0.33906  1.0000
  C   C308      1.0  0.20350  0.82450  0.34348  1.0000
  H   H150      1.0  0.22127  0.78496  0.33842  1.0000
  H   H151      1.0  0.20682  0.83729  0.34240  1.0000
  H   H152      1.0  0.16883  0.79866  0.35505  1.0000
  C   C309      1.0  0.43917  0.00345  0.33576  1.0000
  C   C310      1.0  0.42988  0.98784  0.34050  1.0000
  C   C311      1.0  0.41163  0.98747  0.34372  1.0000
  C   C312      1.0  0.40266  0.00342  0.33875  1.0000
  C   C313      1.0  0.41158  0.01937  0.33240  1.0000
  C   C314      1.0  0.42984  0.01904  0.33272  1.0000
  H   H153      1.0  0.38948  0.00340  0.33955  1.0000
  H   H154      1.0  0.43656  0.03039  0.32907  1.0000
  H   H155      1.0  0.43663  0.97648  0.34221  1.0000
  C   C315      1.0  0.56693  0.00356  0.33500  1.0000
  C   C316      1.0  0.57636  0.01900  0.34567  1.0000
  C   C317      1.0  0.59462  0.01923  0.34796  1.0000
  C   C318      1.0  0.60348  0.00330  0.33929  1.0000
  C   C319      1.0  0.59450  0.98747  0.32875  1.0000
  C   C320      1.0  0.57624  0.98799  0.32697  1.0000
  H   H156      1.0  0.61666  0.00322  0.34048  1.0000
  H   H157      1.0  0.56948  0.97669  0.32216  1.0000
  H   H158      1.0  0.56973  0.03040  0.34865  1.0000
  C   C321      1.0  0.00276  0.43935  0.33574  1.0000
  C   C322      1.0  0.01837  0.43006  0.34048  1.0000
  C   C323      1.0  0.01873  0.41181  0.34369  1.0000
  C   C324      1.0  0.00279  0.40284  0.33873  1.0000
  C   C325      1.0  0.98684  0.41176  0.33239  1.0000
  C   C326      1.0  0.98716  0.43002  0.33271  1.0000
  H   H159      1.0  0.00280  0.38966  0.33952  1.0000
  H   H160      1.0  0.97581  0.43673  0.32905  1.0000
  H   H161      1.0  0.02973  0.43680  0.34220  1.0000
  C   C327      1.0  0.00264  0.56711  0.33508  1.0000
  C   C328      1.0  0.98720  0.57652  0.34578  1.0000
  C   C329      1.0  0.98695  0.59478  0.34797  1.0000
  C   C330      1.0  0.00288  0.60366  0.33926  1.0000
  C   C331      1.0  0.01872  0.59469  0.32876  1.0000
  C   C332      1.0  0.01820  0.57643  0.32706  1.0000
  H   H162      1.0  0.00294  0.61684  0.34040  1.0000
  H   H163      1.0  0.02951  0.56968  0.32222  1.0000
  H   H164      1.0  0.97580  0.56989  0.34865  1.0000
  C   C333      1.0  0.28708  0.41532  0.34567  1.0000
  C   C334      1.0  0.30116  0.40370  0.34547  1.0000
  C   C335      1.0  0.31844  0.40959  0.34411  1.0000
  C   C336      1.0  0.32150  0.42760  0.34412  1.0000
  C   C337      1.0  0.30767  0.43953  0.34370  1.0000
  C   C338      1.0  0.29058  0.43320  0.34396  1.0000
  H   H165      1.0  0.33391  0.43208  0.34338  1.0000
  H   H166      1.0  0.28053  0.44176  0.34507  1.0000
  H   H167      1.0  0.29878  0.39071  0.34685  1.0000
  C   C339      1.0  0.71873  0.59110  0.34593  1.0000
  C   C340      1.0  0.70466  0.60272  0.34568  1.0000
  C   C341      1.0  0.68738  0.59683  0.34406  1.0000
  C   C342      1.0  0.68432  0.57881  0.34391  1.0000
  C   C343      1.0  0.69815  0.56689  0.34356  1.0000
  C   C344      1.0  0.71524  0.57321  0.34403  1.0000
  H   H168      1.0  0.67191  0.57432  0.34303  1.0000
  H   H169      1.0  0.72530  0.56465  0.34519  1.0000
  H   H170      1.0  0.70703  0.61570  0.34723  1.0000
  C   C345      1.0  0.59087  0.28741  0.34611  1.0000
  C   C346      1.0  0.60249  0.30149  0.34586  1.0000
  C   C347      1.0  0.59659  0.31876  0.34425  1.0000
  C   C348      1.0  0.57857  0.32181  0.34407  1.0000
  C   C349      1.0  0.56666  0.30799  0.34369  1.0000
  C   C350      1.0  0.57299  0.29089  0.34417  1.0000
  H   H171      1.0  0.57409  0.33422  0.34320  1.0000
  H   H172      1.0  0.56443  0.28084  0.34532  1.0000
  H   H173      1.0  0.61547  0.29911  0.34740  1.0000
  C   C351      1.0  0.41508  0.71905  0.34548  1.0000
  C   C352      1.0  0.40346  0.70497  0.34527  1.0000
  C   C353      1.0  0.40934  0.68769  0.34394  1.0000
  C   C354      1.0  0.42736  0.68463  0.34399  1.0000
  C   C355      1.0  0.43928  0.69846  0.34360  1.0000
  C   C356      1.0  0.43296  0.71555  0.34385  1.0000
  H   H174      1.0  0.43184  0.67222  0.34328  1.0000
  H   H175      1.0  0.44152  0.72560  0.34492  1.0000
  H   H176      1.0  0.39047  0.70736  0.34662  1.0000
  C   C357      1.0  0.71842  0.41541  0.33241  1.0000
  C   C358      1.0  0.70435  0.40377  0.33004  1.0000
  C   C359      1.0  0.68708  0.40953  0.33765  1.0000
  C   C360      1.0  0.68402  0.42751  0.34485  1.0000
  C   C361      1.0  0.69780  0.43948  0.34487  1.0000
  C   C362      1.0  0.71489  0.43323  0.33993  1.0000
  H   H177      1.0  0.67161  0.43195  0.34810  1.0000
  H   H178      1.0  0.72490  0.44183  0.33853  1.0000
  H   H179      1.0  0.70678  0.39082  0.32573  1.0000
  C   C363      1.0  0.28746  0.59101  0.33231  1.0000
  C   C364      1.0  0.30152  0.60265  0.32990  1.0000
  C   C365      1.0  0.31879  0.59691  0.33762  1.0000
  C   C366      1.0  0.32186  0.57893  0.34498  1.0000
  C   C367      1.0  0.30808  0.56695  0.34503  1.0000
  C   C368      1.0  0.29100  0.57319  0.33997  1.0000
  H   H180      1.0  0.33427  0.57449  0.34819  1.0000
  H   H181      1.0  0.28098  0.56458  0.33858  1.0000
  H   H182      1.0  0.29908  0.61560  0.32548  1.0000
  C   C369      1.0  0.41519  0.28781  0.33232  1.0000
  C   C370      1.0  0.40355  0.30186  0.32991  1.0000
  C   C371      1.0  0.40929  0.31914  0.33763  1.0000
  C   C372      1.0  0.42727  0.32221  0.34491  1.0000
  C   C373      1.0  0.43925  0.30844  0.34481  1.0000
  C   C374      1.0  0.43301  0.29135  0.33985  1.0000
  H   H183      1.0  0.43170  0.33462  0.34810  1.0000
  H   H184      1.0  0.44162  0.28134  0.33843  1.0000
  H   H185      1.0  0.39060  0.29943  0.32568  1.0000
  C   C375      1.0  0.59078  0.71874  0.33221  1.0000
  C   C376      1.0  0.60241  0.70468  0.32980  1.0000
  C   C377      1.0  0.59666  0.68741  0.33760  1.0000
  C   C378      1.0  0.57869  0.68434  0.34490  1.0000
  C   C379      1.0  0.56671  0.69812  0.34487  1.0000
  C   C380      1.0  0.57296  0.71521  0.33980  1.0000
  H   H186      1.0  0.57425  0.67193  0.34821  1.0000
  H   H187      1.0  0.56435  0.72522  0.33843  1.0000
  H   H188      1.0  0.61537  0.70711  0.32553  1.0000
  C   C381      1.0  0.15660  0.33789  0.33995  1.0000
  C   C382      1.0  0.17102  0.34878  0.34971  1.0000
  C   C383      1.0  0.16931  0.36688  0.35368  1.0000
  C   C384      1.0  0.15255  0.37404  0.34774  1.0000
  C   C385      1.0  0.13766  0.36346  0.33865  1.0000
  C   C386      1.0  0.14004  0.34535  0.33344  1.0000
  H   H189      1.0  0.15118  0.38714  0.35167  1.0000
  H   H190      1.0  0.12955  0.33738  0.32948  1.0000
  H   H191      1.0  0.18307  0.34338  0.35307  1.0000
  C   C387      1.0  0.84906  0.66861  0.34265  1.0000
  C   C388      1.0  0.83466  0.65768  0.35209  1.0000
  C   C389      1.0  0.83644  0.63959  0.35631  1.0000
  C   C390      1.0  0.85322  0.63248  0.35110  1.0000
  C   C391      1.0  0.86808  0.64310  0.34240  1.0000
  C   C392      1.0  0.86565  0.66120  0.33683  1.0000
  H   H192      1.0  0.85463  0.61939  0.35521  1.0000
  H   H193      1.0  0.87612  0.66921  0.33311  1.0000
  H   H194      1.0  0.82259  0.66304  0.35504  1.0000
  C   C393      1.0  0.66845  0.15709  0.34252  1.0000
  C   C394      1.0  0.65753  0.17149  0.35198  1.0000
  C   C395      1.0  0.63944  0.16972  0.35628  1.0000
  C   C396      1.0  0.63232  0.15294  0.35107  1.0000
  C   C397      1.0  0.64294  0.13808  0.34233  1.0000
  C   C398      1.0  0.66104  0.14050  0.33671  1.0000
  H   H195      1.0  0.61923  0.15154  0.35521  1.0000
  H   H196      1.0  0.66904  0.13003  0.33299  1.0000
  H   H197      1.0  0.66290  0.18356  0.35492  1.0000
  C   C399      1.0  0.33775  0.84955  0.34019  1.0000
  C   C400      1.0  0.34866  0.83514  0.34986  1.0000
  C   C401      1.0  0.36676  0.83687  0.35381  1.0000
  C   C402      1.0  0.37390  0.85364  0.34789  1.0000
  C   C403      1.0  0.36331  0.86852  0.33887  1.0000
  C   C404      1.0  0.34519  0.86612  0.33376  1.0000
  H   H198      1.0  0.38700  0.85502  0.35174  1.0000
  H   H199      1.0  0.33722  0.87660  0.32975  1.0000
  H   H200      1.0  0.34327  0.82308  0.35322  1.0000
  C   C405      1.0  0.84871  0.33839  0.33606  1.0000
  C   C406      1.0  0.83439  0.34940  0.32596  1.0000
  C   C407      1.0  0.83624  0.36748  0.32185  1.0000
  C   C408      1.0  0.85304  0.37452  0.32811  1.0000
  C   C409      1.0  0.86782  0.36384  0.33777  1.0000
  C   C410      1.0  0.86531  0.34575  0.34324  1.0000
  H   H201      1.0  0.85450  0.38761  0.32407  1.0000
  H   H202      1.0  0.87575  0.33772  0.34749  1.0000
  H   H203      1.0  0.82229  0.34411  0.32258  1.0000
  C   C411      1.0  0.15709  0.66783  0.33348  1.0000
  C   C412      1.0  0.17140  0.65680  0.32374  1.0000
  C   C413      1.0  0.16953  0.63872  0.31950  1.0000
  C   C414      1.0  0.15272  0.63170  0.32526  1.0000
  C   C415      1.0  0.13792  0.64240  0.33449  1.0000
  C   C416      1.0  0.14047  0.66049  0.34011  1.0000
  H   H204      1.0  0.15125  0.61861  0.32115  1.0000
  H   H205      1.0  0.13004  0.66853  0.34412  1.0000
  H   H206      1.0  0.18351  0.66207  0.32071  1.0000
  C   C417      1.0  0.33822  0.15755  0.33592  1.0000
  C   C418      1.0  0.34925  0.17186  0.32583  1.0000
  C   C419      1.0  0.36733  0.16997  0.32175  1.0000
  C   C420      1.0  0.37435  0.15317  0.32801  1.0000
  C   C421      1.0  0.36364  0.13840  0.33757  1.0000
  C   C422      1.0  0.34556  0.14094  0.34307  1.0000
  H   H207      1.0  0.38744  0.15169  0.32392  1.0000
  H   H208      1.0  0.33751  0.13050  0.34728  1.0000
  H   H209      1.0  0.34399  0.18396  0.32242  1.0000
  C   C423      1.0  0.66763  0.84914  0.33363  1.0000
  C   C424      1.0  0.65662  0.83481  0.32380  1.0000
  C   C425      1.0  0.63854  0.83666  0.31956  1.0000
  C   C426      1.0  0.63150  0.85346  0.32534  1.0000
  C   C427      1.0  0.64218  0.86826  0.33459  1.0000
  C   C428      1.0  0.66027  0.86575  0.34020  1.0000
  H   H210      1.0  0.61841  0.85492  0.32126  1.0000
  H   H211      1.0  0.66831  0.87619  0.34432  1.0000
  H   H212      1.0  0.66191  0.82271  0.32082  1.0000
  C   C429      1.0  0.17340  0.17299  0.35370  1.0000
  C   C430      1.0  0.14845  0.14679  0.36122  1.0000
  C   C431      1.0  0.14887  0.15935  0.43056  1.0000
  C   C432      1.0  0.16143  0.17252  0.42510  1.0000
  H   H213      1.0  0.16208  0.18173  0.47410  1.0000
  C   C433      1.0  0.13587  0.13368  0.36223  1.0000
  C   C434      1.0  0.11063  0.10771  0.35814  1.0000
  C   C435      1.0  0.11084  0.11985  0.42879  1.0000
  C   C436      1.0  0.12353  0.13292  0.43253  1.0000
  C   C437      1.0  0.12428  0.14514  0.50296  1.0000
  C   C438      1.0  0.13688  0.15828  0.50199  1.0000
  H   H214      1.0  0.10171  0.11905  0.47814  1.0000
  O   O45       1.0  0.11264  0.14480  0.57134  1.0000
  H   H215      1.0  0.11760  0.13729  0.61775  1.0000
  O   O46       1.0  0.13693  0.17011  0.56955  1.0000
  H   H216      1.0  0.14468  0.16551  0.61598  1.0000
  C   C439      1.0  0.83248  0.83348  0.35371  1.0000
  C   C440      1.0  0.85760  0.85952  0.36108  1.0000
  C   C441      1.0  0.85713  0.84695  0.43035  1.0000
  C   C442      1.0  0.84449  0.83386  0.42495  1.0000
  H   H217      1.0  0.84380  0.82465  0.47393  1.0000
  C   C443      1.0  0.87025  0.87256  0.36200  1.0000
  C   C444      1.0  0.89564  0.89839  0.35782  1.0000
  C   C445      1.0  0.89539  0.88623  0.42838  1.0000
  C   C446      1.0  0.88263  0.87323  0.43217  1.0000
  C   C447      1.0  0.88184  0.86100  0.50254  1.0000
  C   C448      1.0  0.86915  0.84793  0.50165  1.0000
  H   H218      1.0  0.90453  0.88698  0.47769  1.0000
  O   O47       1.0  0.89351  0.86125  0.57080  1.0000
  H   H219      1.0  0.88860  0.86879  0.61733  1.0000
  O   O48       1.0  0.86906  0.83610  0.56915  1.0000
  H   H220      1.0  0.86136  0.84073  0.61569  1.0000
  C   C449      1.0  0.83341  0.17349  0.35365  1.0000
  C   C450      1.0  0.85953  0.14846  0.36112  1.0000
  C   C451      1.0  0.84697  0.14890  0.43044  1.0000
  C   C452      1.0  0.83384  0.16151  0.42501  1.0000
  H   H221      1.0  0.82463  0.16218  0.47399  1.0000
  C   C453      1.0  0.87260  0.13584  0.36208  1.0000
  C   C454      1.0  0.89850  0.11052  0.35794  1.0000
  C   C455      1.0  0.88635  0.11075  0.42856  1.0000
  C   C456      1.0  0.87332  0.12348  0.43233  1.0000
  C   C457      1.0  0.86109  0.12425  0.50274  1.0000
  C   C458      1.0  0.84799  0.13690  0.50181  1.0000
  H   H222      1.0  0.88713  0.10162  0.47790  1.0000
  O   O49       1.0  0.86139  0.11260  0.57106  1.0000
  H   H223      1.0  0.86892  0.11754  0.61753  1.0000
  O   O50       1.0  0.83616  0.13698  0.56935  1.0000
  H   H224      1.0  0.84078  0.14470  0.61582  1.0000
  C   C459      1.0  0.17292  0.83258  0.35375  1.0000
  C   C460      1.0  0.14679  0.85761  0.36119  1.0000
  C   C461      1.0  0.15935  0.85716  0.43052  1.0000
  C   C462      1.0  0.17249  0.84456  0.42510  1.0000
  H   H225      1.0  0.18170  0.84389  0.47410  1.0000
  C   C463      1.0  0.13371  0.87022  0.36216  1.0000
  C   C464      1.0  0.10781  0.89554  0.35801  1.0000
  C   C465      1.0  0.11996  0.89530  0.42864  1.0000
  C   C466      1.0  0.13299  0.88257  0.43241  1.0000
  C   C467      1.0  0.14521  0.88180  0.50284  1.0000
  C   C468      1.0  0.15832  0.86916  0.50191  1.0000
  H   H226      1.0  0.11918  0.90443  0.47797  1.0000
  O   O51       1.0  0.14491  0.89345  0.57118  1.0000
  H   H227      1.0  0.13738  0.88851  0.61762  1.0000
  O   O52       1.0  0.17014  0.86908  0.56946  1.0000
  H   H228      1.0  0.16553  0.86136  0.61593  1.0000
  C   C469      1.0  0.09638  0.96645  0.40462  1.0000
  N   N41       1.0  0.09761  0.98384  0.39828  1.0000
  C   C470      1.0  0.09749  0.03720  0.40254  1.0000
  H   H229      1.0  0.09760  0.96080  0.46626  1.0000
  N   N42       1.0  0.09817  0.01977  0.39721  1.0000
  H   H230      1.0  0.09890  0.04294  0.46385  1.0000
  C   C471      1.0  0.91004  0.03961  0.40497  1.0000
  N   N43       1.0  0.90878  0.02222  0.39860  1.0000
  C   C472      1.0  0.90889  0.96887  0.40277  1.0000
  H   H231      1.0  0.90881  0.04526  0.46660  1.0000
  N   N44       1.0  0.90821  0.98629  0.39747  1.0000
  H   H232      1.0  0.90754  0.96314  0.46414  1.0000
  C   C473      1.0  0.03973  0.09613  0.40506  1.0000
  N   N45       1.0  0.02234  0.09738  0.39869  1.0000
  C   C474      1.0  0.96899  0.09727  0.40287  1.0000
  H   H233      1.0  0.04538  0.09736  0.46668  1.0000
  N   N46       1.0  0.98641  0.09797  0.39756  1.0000
  H   H234      1.0  0.96325  0.09866  0.46419  1.0000
  C   C475      1.0  0.96658  0.90986  0.40483  1.0000
  N   N47       1.0  0.98397  0.90862  0.39843  1.0000
  C   C476      1.0  0.03733  0.90874  0.40251  1.0000
  H   H235      1.0  0.96093  0.90863  0.46645  1.0000
  N   N48       1.0  0.01990  0.90806  0.39724  1.0000
  H   H236      1.0  0.04307  0.90734  0.46383  1.0000
  C   C477      1.0  0.16612  0.31144  0.41525  1.0000
  N   N49       1.0  0.17137  0.29482  0.41003  1.0000
  C   C478      1.0  0.18964  0.24469  0.41153  1.0000
  H   H237      1.0  0.16777  0.31790  0.47442  1.0000
  N   N50       1.0  0.18347  0.26102  0.40794  1.0000
  H   H238      1.0  0.19434  0.24013  0.47106  1.0000
  C   C479      1.0  0.83939  0.69508  0.41724  1.0000
  N   N51       1.0  0.83417  0.71171  0.41166  1.0000
  C   C480      1.0  0.81597  0.76185  0.41198  1.0000
  H   H239      1.0  0.83770  0.68866  0.47649  1.0000
  N   N52       1.0  0.82212  0.74552  0.40878  1.0000
  H   H240      1.0  0.81122  0.76645  0.47134  1.0000
  C   C481      1.0  0.69494  0.16669  0.41718  1.0000
  N   N53       1.0  0.71158  0.17187  0.41163  1.0000
  C   C482      1.0  0.76177  0.18993  0.41213  1.0000
  H   H241      1.0  0.68853  0.16836  0.47646  1.0000
  N   N54       1.0  0.74541  0.18382  0.40886  1.0000
  H   H242      1.0  0.76637  0.19466  0.47152  1.0000
  C   C483      1.0  0.31130  0.83998  0.41546  1.0000
  N   N55       1.0  0.29470  0.83470  0.41020  1.0000
  C   C484      1.0  0.24459  0.81633  0.41149  1.0000
  H   H243      1.0  0.31775  0.83838  0.47469  1.0000
  N   N56       1.0  0.26091  0.82253  0.40798  1.0000
  H   H244      1.0  0.24003  0.81164  0.47103  1.0000
  C   C485      1.0  0.84591  0.32031  0.33751  1.0000
  C   C486      1.0  0.83496  0.28575  0.34616  1.0000
  C   C487      1.0  0.84327  0.29315  0.42195  1.0000
  C   C488      1.0  0.84878  0.31053  0.41609  1.0000
  H   H245      1.0  0.85415  0.31642  0.47078  1.0000
  C   C489      1.0  0.82888  0.26862  0.34910  1.0000
  C   C490      1.0  0.81690  0.23440  0.35036  1.0000
  C   C491      1.0  0.82536  0.24126  0.42638  1.0000
  C   C492      1.0  0.83127  0.25851  0.42758  1.0000
  C   C493      1.0  0.83941  0.26592  0.50341  1.0000
  C   C494      1.0  0.84529  0.28316  0.50076  1.0000
  H   H246      1.0  0.82715  0.23357  0.48136  1.0000
  O   O53       1.0  0.84194  0.25658  0.57966  1.0000
  H   H247      1.0  0.83157  0.25826  0.61662  1.0000
  O   O54       1.0  0.85322  0.28980  0.57460  1.0000
  H   H248      1.0  0.84405  0.29487  0.61170  1.0000
  C   C495      1.0  0.15993  0.68591  0.33521  1.0000
  C   C496      1.0  0.17109  0.72040  0.34455  1.0000
  C   C497      1.0  0.16274  0.71298  0.42019  1.0000
  C   C498      1.0  0.15712  0.69564  0.41397  1.0000
  H   H249      1.0  0.15175  0.68974  0.46860  1.0000
  C   C499      1.0  0.17728  0.73750  0.34785  1.0000
  C   C500      1.0  0.18945  0.77166  0.34984  1.0000
  C   C501      1.0  0.18095  0.76478  0.42571  1.0000
  C   C502      1.0  0.17495  0.74755  0.42656  1.0000
  C   C503      1.0  0.16678  0.74013  0.50223  1.0000
  C   C504      1.0  0.16080  0.72293  0.49922  1.0000
  H   H250      1.0  0.17919  0.77243  0.48083  1.0000
  O   O55       1.0  0.16430  0.74943  0.57868  1.0000
  H   H251      1.0  0.17466  0.74766  0.61559  1.0000
  O   O56       1.0  0.15283  0.71628  0.57294  1.0000
  H   H252      1.0  0.16198  0.71113  0.60993  1.0000
  C   C505      1.0  0.32014  0.16039  0.33732  1.0000
  C   C506      1.0  0.28561  0.17141  0.34610  1.0000
  C   C507      1.0  0.29298  0.16303  0.42174  1.0000
  C   C508      1.0  0.31035  0.15749  0.41583  1.0000
  H   H253      1.0  0.31622  0.15206  0.47041  1.0000
  C   C509      1.0  0.26849  0.17753  0.34912  1.0000
  C   C510      1.0  0.23429  0.18957  0.35052  1.0000
  C   C511      1.0  0.24113  0.18105  0.42640  1.0000
  C   C512      1.0  0.25837  0.17510  0.42752  1.0000
  C   C513      1.0  0.26575  0.16689  0.50320  1.0000
  C   C514      1.0  0.28298  0.16098  0.50048  1.0000
  H   H254      1.0  0.23343  0.17922  0.48131  1.0000
  O   O57       1.0  0.25639  0.16432  0.57937  1.0000
  H   H255      1.0  0.25810  0.17465  0.61655  1.0000
  O   O58       1.0  0.28959  0.15297  0.57418  1.0000
  H   H256      1.0  0.29468  0.16210  0.61149  1.0000
  C   C515      1.0  0.68571  0.84632  0.33535  1.0000
  C   C516      1.0  0.72023  0.83527  0.34457  1.0000
  C   C517      1.0  0.71278  0.84352  0.42041  1.0000
  C   C518      1.0  0.69542  0.84908  0.41427  1.0000
  H   H257      1.0  0.68949  0.85440  0.46896  1.0000
  C   C519      1.0  0.73734  0.82914  0.34778  1.0000
  C   C520      1.0  0.77153  0.81705  0.34964  1.0000
  C   C521      1.0  0.76462  0.82545  0.42571  1.0000
  C   C522      1.0  0.74738  0.83141  0.42661  1.0000
  C   C523      1.0  0.73992  0.83948  0.50247  1.0000
  C   C524      1.0  0.72270  0.84542  0.49954  1.0000
  H   H258      1.0  0.77226  0.82717  0.48093  1.0000
  O   O59       1.0  0.74920  0.84191  0.57904  1.0000
  H   H259      1.0  0.74745  0.83151  0.61565  1.0000
  O   O60       1.0  0.71601  0.85329  0.57344  1.0000
  H   H260      1.0  0.71088  0.84409  0.61016  1.0000
  C   C525      1.0  0.36544  0.10835  0.39678  1.0000
  N   N57       1.0  0.37175  0.09204  0.39073  1.0000
  C   C526      1.0  0.39058  0.04127  0.38811  1.0000
  H   H261      1.0  0.35699  0.11110  0.44740  1.0000
  N   N58       1.0  0.38449  0.05772  0.38590  1.0000
  H   H262      1.0  0.38673  0.03337  0.43915  1.0000
  C   C527      1.0  0.64047  0.89838  0.39308  1.0000
  N   N59       1.0  0.63418  0.91469  0.38683  1.0000
  C   C528      1.0  0.61551  0.96550  0.38360  1.0000
  H   H263      1.0  0.64901  0.89567  0.44337  1.0000
  N   N60       1.0  0.62153  0.94902  0.38160  1.0000
  H   H264      1.0  0.61946  0.97340  0.43445  1.0000
  C   C529      1.0  0.89786  0.36567  0.39709  1.0000
  N   N61       1.0  0.91417  0.37197  0.39097  1.0000
  C   C530      1.0  0.96493  0.39079  0.38828  1.0000
  H   H265      1.0  0.89510  0.35724  0.44776  1.0000
  N   N62       1.0  0.94848  0.38470  0.38608  1.0000
  H   H266      1.0  0.97283  0.38694  0.43934  1.0000
  C   C531      1.0  0.10780  0.64072  0.39286  1.0000
  N   N63       1.0  0.09149  0.63442  0.38665  1.0000
  C   C532      1.0  0.04068  0.61571  0.38351  1.0000
  H   H267      1.0  0.11050  0.64926  0.44311  1.0000
  N   N64       1.0  0.05716  0.62174  0.38148  1.0000
  H   H268      1.0  0.03277  0.61969  0.43427  1.0000
  C   C533      1.0  0.63586  0.12098  0.34495  1.0000
  C   C534      1.0  0.62331  0.08660  0.35473  1.0000
  C   C535      1.0  0.61756  0.09897  0.41844  1.0000
  C   C536      1.0  0.62392  0.11606  0.41204  1.0000
  H   H269      1.0  0.62016  0.12500  0.45851  1.0000
  C   C537      1.0  0.61700  0.06945  0.35770  1.0000
  C   C538      1.0  0.60330  0.03548  0.35652  1.0000
  C   C539      1.0  0.59817  0.04760  0.42241  1.0000
  C   C540      1.0  0.60484  0.06459  0.42434  1.0000
  C   C541      1.0  0.59946  0.07685  0.48892  1.0000
  C   C542      1.0  0.60579  0.09391  0.48606  1.0000
  H   H270      1.0  0.58912  0.04403  0.46874  1.0000
  O   O61       1.0  0.58760  0.07271  0.55281  1.0000
  H   H271      1.0  0.59418  0.06830  0.60435  1.0000
  O   O62       1.0  0.59983  0.10547  0.54748  1.0000
  H   H272      1.0  0.60776  0.10484  0.59883  1.0000
  C   C543      1.0  0.37042  0.88561  0.34089  1.0000
  C   C544      1.0  0.38308  0.91999  0.34969  1.0000
  C   C545      1.0  0.38886  0.90763  0.41342  1.0000
  C   C546      1.0  0.38245  0.89055  0.40751  1.0000
  H   H273      1.0  0.38623  0.88164  0.45409  1.0000
  C   C547      1.0  0.38941  0.93714  0.35234  1.0000
  C   C548      1.0  0.40308  0.97114  0.35120  1.0000
  C   C549      1.0  0.40829  0.95899  0.41677  1.0000
  C   C550      1.0  0.40163  0.94200  0.41873  1.0000
  C   C551      1.0  0.40706  0.92975  0.48329  1.0000
  C   C552      1.0  0.40070  0.91270  0.48072  1.0000
  H   H274      1.0  0.41734  0.96256  0.46307  1.0000
  O   O63       1.0  0.41895  0.93390  0.54697  1.0000
  H   H275      1.0  0.41241  0.93833  0.59858  1.0000
  O   O64       1.0  0.40667  0.90117  0.54223  1.0000
  H   H276      1.0  0.39877  0.90184  0.59371  1.0000
  C   C553      1.0  0.12058  0.37059  0.34067  1.0000
  C   C554      1.0  0.08619  0.38323  0.34961  1.0000
  C   C555      1.0  0.09855  0.38899  0.41341  1.0000
  C   C556      1.0  0.11563  0.38258  0.40747  1.0000
  H   H277      1.0  0.12455  0.38636  0.45405  1.0000
  C   C557      1.0  0.06905  0.38957  0.35229  1.0000
  C   C558      1.0  0.03507  0.40326  0.35111  1.0000
  C   C559      1.0  0.04720  0.40843  0.41680  1.0000
  C   C560      1.0  0.06419  0.40177  0.41875  1.0000
  C   C561      1.0  0.07644  0.40717  0.48338  1.0000
  C   C562      1.0  0.09348  0.40080  0.48082  1.0000
  H   H278      1.0  0.04363  0.41748  0.46312  1.0000
  O   O65       1.0  0.07228  0.41904  0.54717  1.0000
  H   H279      1.0  0.06785  0.41248  0.59871  1.0000
  O   O66       1.0  0.10501  0.40676  0.54239  1.0000
  H   H280      1.0  0.10434  0.39884  0.59379  1.0000
  C   C563      1.0  0.88518  0.63603  0.34499  1.0000
  C   C564      1.0  0.91957  0.62347  0.35475  1.0000
  C   C565      1.0  0.90718  0.61770  0.41835  1.0000
  C   C566      1.0  0.89010  0.62406  0.41198  1.0000
  H   H281      1.0  0.88115  0.62028  0.45839  1.0000
  C   C567      1.0  0.93672  0.61716  0.35770  1.0000
  C   C568      1.0  0.97069  0.60345  0.35650  1.0000
  C   C569      1.0  0.95856  0.59830  0.42229  1.0000
  C   C570      1.0  0.94157  0.60497  0.42423  1.0000
  C   C571      1.0  0.92930  0.59956  0.48871  1.0000
  C   C572      1.0  0.91224  0.60590  0.48585  1.0000
  H   H282      1.0  0.96212  0.58924  0.46858  1.0000
  O   O67       1.0  0.93343  0.58768  0.55247  1.0000
  H   H283      1.0  0.93783  0.59423  0.60411  1.0000
  O   O68       1.0  0.90068  0.59991  0.54716  1.0000
  H   H284      1.0  0.90129  0.60782  0.59862  1.0000
  C   C573      1.0  0.53853  0.01243  0.39592  1.0000
  N   N65       1.0  0.52106  0.01207  0.39189  1.0000
  C   C574      1.0  0.46747  0.01241  0.39627  1.0000
  H   H285      1.0  0.54423  0.01880  0.44812  1.0000
  N   N66       1.0  0.48493  0.01210  0.39195  1.0000
  H   H286      1.0  0.46172  0.01893  0.44782  1.0000
  C   C575      1.0  0.99379  0.53870  0.39601  1.0000
  N   N67       1.0  0.99414  0.52124  0.39195  1.0000
  C   C576      1.0  0.99379  0.46764  0.39623  1.0000
  H   H287      1.0  0.98740  0.54440  0.44813  1.0000
  N   N68       1.0  0.99411  0.48510  0.39195  1.0000
  H   H288      1.0  0.98727  0.46190  0.44779  1.0000
  C   C577      1.0  0.26976  0.40923  0.35169  1.0000
  C   C578      1.0  0.23525  0.39758  0.36399  1.0000
  C   C579      1.0  0.24720  0.39302  0.43237  1.0000
  C   C580      1.0  0.26443  0.39886  0.42453  1.0000
  H   H289      1.0  0.27322  0.39573  0.47307  1.0000
  C   C581      1.0  0.21810  0.39134  0.36716  1.0000
  C   C582      1.0  0.18455  0.37697  0.36470  1.0000
  C   C583      1.0  0.19596  0.37354  0.43662  1.0000
  C   C584      1.0  0.21279  0.38055  0.43910  1.0000
  C   C585      1.0  0.22454  0.37658  0.50879  1.0000
  C   C586      1.0  0.24164  0.38276  0.50539  1.0000
  H   H290      1.0  0.19217  0.36513  0.48570  1.0000
  O   O69       1.0  0.21992  0.36609  0.57805  1.0000
  H   H291      1.0  0.21504  0.37366  0.62446  1.0000
  O   O70       1.0  0.25277  0.37803  0.57165  1.0000
  H   H292      1.0  0.25201  0.38704  0.61788  1.0000
  C   C587      1.0  0.73605  0.59718  0.35228  1.0000
  C   C588      1.0  0.77054  0.60882  0.36521  1.0000
  C   C589      1.0  0.75859  0.61325  0.43383  1.0000
  C   C590      1.0  0.74136  0.60742  0.42566  1.0000
  H   H293      1.0  0.73257  0.61044  0.47434  1.0000
  C   C591      1.0  0.78768  0.61507  0.36871  1.0000
  C   C592      1.0  0.82123  0.62945  0.36703  1.0000
  C   C593      1.0  0.80980  0.63277  0.43899  1.0000
  C   C594      1.0  0.79299  0.62573  0.44119  1.0000
  C   C595      1.0  0.78124  0.62955  0.51110  1.0000
  C   C596      1.0  0.76414  0.62337  0.50739  1.0000
  H   H294      1.0  0.81359  0.64108  0.48851  1.0000
  O   O71       1.0  0.78584  0.63992  0.58087  1.0000
  H   H295      1.0  0.79075  0.63227  0.62687  1.0000
  O   O72       1.0  0.75300  0.62796  0.57389  1.0000
  H   H296      1.0  0.75378  0.61886  0.61965  1.0000
  C   C597      1.0  0.59696  0.27009  0.35245  1.0000
  C   C598      1.0  0.60865  0.23561  0.36530  1.0000
  C   C599      1.0  0.61310  0.24757  0.43381  1.0000
  C   C600      1.0  0.60725  0.26480  0.42568  1.0000
  H   H297      1.0  0.61030  0.27360  0.47428  1.0000
  C   C601      1.0  0.61491  0.21848  0.36874  1.0000
  C   C602      1.0  0.62930  0.18494  0.36697  1.0000
  C   C603      1.0  0.63265  0.19637  0.43887  1.0000
  C   C604      1.0  0.62561  0.21319  0.44109  1.0000
  C   C605      1.0  0.62947  0.22495  0.51089  1.0000
  C   C606      1.0  0.62327  0.24204  0.50721  1.0000
  H   H298      1.0  0.64100  0.19259  0.48826  1.0000
  O   O73       1.0  0.63988  0.22036  0.58052  1.0000
  H   H299      1.0  0.63226  0.21545  0.62666  1.0000
  O   O74       1.0  0.62789  0.25319  0.57361  1.0000
  H   H300      1.0  0.61882  0.25241  0.61951  1.0000
  C   C607      1.0  0.40900  0.73638  0.35147  1.0000
  C   C608      1.0  0.39739  0.77090  0.36382  1.0000
  C   C609      1.0  0.39286  0.75897  0.43233  1.0000
  C   C610      1.0  0.39867  0.74172  0.42445  1.0000
  H   H301      1.0  0.39558  0.73295  0.47310  1.0000
  C   C611      1.0  0.39117  0.78806  0.36705  1.0000
  C   C612      1.0  0.37686  0.82164  0.36480  1.0000
  C   C613      1.0  0.37346  0.81023  0.43675  1.0000
  C   C614      1.0  0.38045  0.79340  0.43919  1.0000
  C   C615      1.0  0.37651  0.78166  0.50900  1.0000
  C   C616      1.0  0.38266  0.76455  0.50552  1.0000
  H   H302      1.0  0.36509  0.81404  0.48598  1.0000
  O   O75       1.0  0.36607  0.78630  0.57841  1.0000
  H   H303      1.0  0.37368  0.79118  0.62466  1.0000
  O   O76       1.0  0.37796  0.75343  0.57191  1.0000
  H   H304      1.0  0.38701  0.75420  0.61797  1.0000
  C   C617      1.0  0.74831  0.41358  0.39039  1.0000
  N   N69       1.0  0.76472  0.40769  0.38233  1.0000
  C   C618      1.0  0.81510  0.38865  0.37950  1.0000
  H   H305      1.0  0.74515  0.42072  0.44563  1.0000
  N   N70       1.0  0.79880  0.39506  0.37658  1.0000
  H   H306      1.0  0.82243  0.39095  0.43521  1.0000
  C   C619      1.0  0.25754  0.59284  0.39001  1.0000
  N   N71       1.0  0.24112  0.59869  0.38166  1.0000
  C   C620      1.0  0.19067  0.61762  0.37771  1.0000
  H   H307      1.0  0.26069  0.58575  0.44543  1.0000
  N   N72       1.0  0.20699  0.61125  0.37519  1.0000
  H   H308      1.0  0.18333  0.61538  0.43346  1.0000
  C   C621      1.0  0.41336  0.25793  0.39042  1.0000
  N   N73       1.0  0.40748  0.24152  0.38237  1.0000
  C   C622      1.0  0.38847  0.19111  0.37947  1.0000
  H   H309      1.0  0.42044  0.26111  0.44584  1.0000
  N   N74       1.0  0.39487  0.20742  0.37658  1.0000
  H   H310      1.0  0.39070  0.18380  0.43534  1.0000
  C   C623      1.0  0.59257  0.74867  0.38976  1.0000
  N   N75       1.0  0.59844  0.76509  0.38144  1.0000
  C   C624      1.0  0.61737  0.81554  0.37753  1.0000
  H   H311      1.0  0.58543  0.74554  0.44502  1.0000
  N   N76       1.0  0.61101  0.79922  0.37501  1.0000
  H   H312      1.0  0.61510  0.82289  0.43323  1.0000
  C   C625      1.0  0.30976  0.53887  0.42290  1.0000
  N   N77       1.0  0.31025  0.52138  0.41852  1.0000
  C   C626      1.0  0.30942  0.46754  0.42163  1.0000
  H   H313      1.0  0.30808  0.54463  0.48396  1.0000
  N   N78       1.0  0.31007  0.48503  0.41786  1.0000
  H   H314      1.0  0.30772  0.46173  0.48256  1.0000
  C   C627      1.0  0.69604  0.46755  0.42271  1.0000
  N   N79       1.0  0.69555  0.48504  0.41829  1.0000
  C   C628      1.0  0.69633  0.53888  0.42142  1.0000
  H   H315      1.0  0.69766  0.46179  0.48381  1.0000
  N   N80       1.0  0.69570  0.52140  0.41763  1.0000
  H   H316      1.0  0.69795  0.54469  0.48241  1.0000
  C   C629      1.0  0.46731  0.31028  0.42267  1.0000
  N   N81       1.0  0.48480  0.31074  0.41828  1.0000
  C   C630      1.0  0.53864  0.30987  0.42153  1.0000
  H   H317      1.0  0.46155  0.30869  0.48378  1.0000
  N   N82       1.0  0.52116  0.31053  0.41770  1.0000
  H   H318      1.0  0.54445  0.30830  0.48255  1.0000
  C   C631      1.0  0.53864  0.69647  0.42275  1.0000
  N   N83       1.0  0.52114  0.69597  0.41840  1.0000
  C   C632      1.0  0.46730  0.69674  0.42157  1.0000
  H   H319      1.0  0.54439  0.69817  0.48379  1.0000
  N   N84       1.0  0.48479  0.69610  0.41779  1.0000
  H   H320      1.0  0.46149  0.69845  0.48249  1.0000
  C   C633      1.0  0.33229  0.39744  0.34415  1.0000
  C   C634      1.0  0.35845  0.37190  0.34493  1.0000
  C   C635      1.0  0.35644  0.38280  0.42096  1.0000
  C   C636      1.0  0.34340  0.39563  0.41881  1.0000
  H   H321      1.0  0.34160  0.40348  0.47313  1.0000
  C   C637      1.0  0.37141  0.35901  0.34389  1.0000
  C   C638      1.0  0.39708  0.33296  0.33913  1.0000
  C   C639      1.0  0.39544  0.34389  0.41463  1.0000
  C   C640      1.0  0.38255  0.35686  0.41885  1.0000
  C   C641      1.0  0.38022  0.36746  0.49528  1.0000
  C   C642      1.0  0.36728  0.38031  0.49633  1.0000
  H   H322      1.0  0.40342  0.34197  0.46834  1.0000
  O   O77       1.0  0.39051  0.36568  0.56872  1.0000
  H   H323      1.0  0.38480  0.35719  0.60774  1.0000
  O   O78       1.0  0.36566  0.39037  0.57074  1.0000
  H   H324      1.0  0.35735  0.38448  0.61001  1.0000
  C   C643      1.0  0.67353  0.60897  0.34405  1.0000
  C   C644      1.0  0.64743  0.63457  0.34489  1.0000
  C   C645      1.0  0.64945  0.62369  0.42101  1.0000
  C   C646      1.0  0.66247  0.61084  0.41883  1.0000
  H   H325      1.0  0.66428  0.60301  0.47324  1.0000
  C   C647      1.0  0.63450  0.64748  0.34388  1.0000
  C   C648      1.0  0.60887  0.67358  0.33914  1.0000
  C   C649      1.0  0.61054  0.66268  0.41477  1.0000
  C   C650      1.0  0.62340  0.64969  0.41895  1.0000
  C   C651      1.0  0.62574  0.63911  0.49547  1.0000
  C   C652      1.0  0.63865  0.62624  0.49649  1.0000
  H   H326      1.0  0.60257  0.66462  0.46850  1.0000
  O   O79       1.0  0.61548  0.64094  0.56902  1.0000
  H   H327      1.0  0.62123  0.64942  0.60788  1.0000
  O   O80       1.0  0.64029  0.61620  0.57098  1.0000
  H   H328      1.0  0.64863  0.62209  0.61009  1.0000
  C   C653      1.0  0.60873  0.33261  0.34425  1.0000
  C   C654      1.0  0.63430  0.35873  0.34506  1.0000
  C   C655      1.0  0.62348  0.35665  0.42136  1.0000
  C   C656      1.0  0.61064  0.34362  0.41921  1.0000
  H   H329      1.0  0.60285  0.34176  0.47373  1.0000
  C   C657      1.0  0.64720  0.37168  0.34401  1.0000
  C   C658      1.0  0.67325  0.39733  0.33917  1.0000
  C   C659      1.0  0.66242  0.39561  0.41499  1.0000
  C   C660      1.0  0.64945  0.38273  0.41923  1.0000
  C   C661      1.0  0.63893  0.38032  0.49592  1.0000
  C   C662      1.0  0.62607  0.36740  0.49698  1.0000
  H   H330      1.0  0.66440  0.40354  0.46884  1.0000
  O   O81       1.0  0.64081  0.39054  0.56960  1.0000
  H   H331      1.0  0.64933  0.38478  0.60820  1.0000
  O   O82       1.0  0.61609  0.36570  0.57165  1.0000
  H   H332      1.0  0.62202  0.35734  0.61049  1.0000
  C   C663      1.0  0.39719  0.67384  0.34395  1.0000
  C   C664      1.0  0.37162  0.64770  0.34476  1.0000
  C   C665      1.0  0.38259  0.64964  0.42056  1.0000
  C   C666      1.0  0.39543  0.66267  0.41838  1.0000
  H   H333      1.0  0.40332  0.66443  0.47260  1.0000
  C   C667      1.0  0.35871  0.63476  0.34375  1.0000
  C   C668      1.0  0.33263  0.60912  0.33906  1.0000
  C   C669      1.0  0.34362  0.61070  0.41436  1.0000
  C   C670      1.0  0.35661  0.62357  0.41853  1.0000
  C   C671      1.0  0.36728  0.62583  0.49476  1.0000
  C   C672      1.0  0.38015  0.63874  0.49578  1.0000
  H   H334      1.0  0.34175  0.60268  0.46793  1.0000
  O   O83       1.0  0.36554  0.61548  0.56804  1.0000
  H   H335      1.0  0.35711  0.62117  0.60736  1.0000
  O   O84       1.0  0.39027  0.64030  0.56998  1.0000
  H   H336      1.0  0.38442  0.64859  0.60955  1.0000
