data_image0
_chemical_formula_structural       C6N2H6C6N2H6C6N2H6C2H2C2H5C2H2C2H5C2H2C2H5C2H2C2H5C2H2C2H5C2H2C2H5C3HNC3NH3C3HNC3NH3C3HNC3NH3C4NC2NCH2CHC4NC2NCH2CHC4NC2NCH2CHC4NC2NCH2CHC4NC2NCH2CHC4NC2NCH2CHC6N2H6C6N2H6C6N2H6C2H2C2H5C2H2C2H5C2H2C2H5C2H2C2H5C2H2C2H5C2H2C2H5C3HNC3NH3C3HNC3NH3C3HNC3NH3C4NC2NCH2CHC4NC2NCH2CHC4NC2NCH2CHC4NC2NCH2CHC4NC2NCH2CHC4NC2NCH2CHC6N2H6C6N2H6C6N2H6C2H2C2H5C2H2C2H5C2H2C2H5C2H2C2H5C2H2C2H5C2H2C2H5C3HNC3NH3C3HNC3NH3C3HNC3NH3C4NC2NCH2CHC4NC2NCH2CHC4NC2NCH2CHC4NC2NCH2CHC4NC2NCH2CHC4NC2NCH2CHC6N2H6C6N2H6C6N2H6C2H2C2H5C2H2C2H5C2H2C2H5C2H2C2H5C2H2C2H5C2H2C2H5C3HNC3NH3C3HNC3NH3C3HNC3NH3C4NC2NCH2CHC4NC2NCH2CHC4NC2NCH2CHC4NC2NCH2CHC4NC2NCH2CHC4NC2NCH2CH
_chemical_formula_sum              "C432 N96 H360"
_cell_length_a       46.512
_cell_length_b       46.512
_cell_length_c       15.0772
_cell_angle_alpha    90
_cell_angle_beta     90
_cell_angle_gamma    120

_space_group_name_H-M_alt    "P 1"
_space_group_IT_number       1

loop_
  _space_group_symop_operation_xyz
  'x, y, z'

loop_
  _atom_site_type_symbol
  _atom_site_label
  _atom_site_symmetry_multiplicity
  _atom_site_fract_x
  _atom_site_fract_y
  _atom_site_fract_z
  _atom_site_occupancy
  C   C1        1.0  0.47812  0.23763  0.29672  1.0000
  C   C2        1.0  0.42534  0.18298  0.31627  1.0000
  C   C3        1.0  0.45903  0.20186  0.28560  1.0000
  C   C4        1.0  0.01427  0.25726  0.29669  1.0000
  C   C5        1.0  0.03333  0.29303  0.28561  1.0000
  C   C6        1.0  0.06699  0.31194  0.31650  1.0000
  N   N1        1.0  0.47235  0.18572  0.24114  1.0000
  N   N2        1.0  0.02005  0.30915  0.24090  1.0000
  H   H1        1.0  0.99162  0.19795  0.20319  1.0000
  H   H2        1.0  0.46089  0.16187  0.23447  1.0000
  H   H3        1.0  0.03137  0.33301  0.23456  1.0000
  H   H4        1.0  0.50070  0.29692  0.20320  1.0000
  H   H5        1.0  0.12928  0.33114  0.30664  1.0000
  H   H6        1.0  0.36316  0.16394  0.30495  1.0000
  C   C7        1.0  0.25596  0.23915  0.29637  1.0000
  C   C8        1.0  0.31059  0.24105  0.31666  1.0000
  C   C9        1.0  0.29173  0.25581  0.28542  1.0000
  C   C10       1.0  0.23637  0.25571  0.29643  1.0000
  C   C11       1.0  0.20060  0.23903  0.28544  1.0000
  C   C12       1.0  0.18173  0.25379  0.31660  1.0000
  N   N3        1.0  0.30788  0.28519  0.24062  1.0000
  N   N4        1.0  0.18445  0.20964  0.24068  1.0000
  H   H7        1.0  0.29571  0.29234  0.20282  1.0000
  H   H8        1.0  0.33176  0.29780  0.23473  1.0000
  H   H9        1.0  0.16058  0.19710  0.23463  1.0000
  H   H10       1.0  0.19663  0.20252  0.20282  1.0000
  H   H11       1.0  0.16276  0.29698  0.30589  1.0000
  H   H12       1.0  0.32960  0.19787  0.30725  1.0000
  C   C13       1.0  0.25443  0.01556  0.29634  1.0000
  C   C14       1.0  0.25246  0.06826  0.31635  1.0000
  C   C15       1.0  0.23774  0.03463  0.28527  1.0000
  C   C16       1.0  0.23788  0.47940  0.29655  1.0000
  C   C17       1.0  0.25454  0.46029  0.28535  1.0000
  C   C18       1.0  0.23979  0.42666  0.31645  1.0000
  N   N5        1.0  0.20833  0.02133  0.24055  1.0000
  N   N6        1.0  0.28394  0.47359  0.24064  1.0000
  H   H13       1.0  0.20134  0.50206  0.20260  1.0000
  H   H14       1.0  0.19585  0.03269  0.23390  1.0000
  H   H15       1.0  0.29635  0.46216  0.23388  1.0000
  H   H16       1.0  0.29088  0.99281  0.20253  1.0000
  H   H17       1.0  0.19655  0.36412  0.30877  1.0000
  H   H18       1.0  0.29558  0.13082  0.30834  1.0000
  C   C19       1.0  0.09191  0.22579  0.27076  1.0000
  C   C20       1.0  0.12206  0.22480  0.26410  1.0000
  H   H19       1.0  0.12800  0.21915  0.20423  1.0000
  H   H20       1.0  0.07654  0.21956  0.21732  1.0000
  C   C21       1.0  0.11388  0.25561  0.07297  1.0000
  C   C22       1.0  0.15167  0.27016  0.06137  1.0000
  H   H21       1.0  0.10278  0.22934  0.08865  1.0000
  H   H22       1.0  0.10910  0.26857  0.12631  1.0000
  H   H23       1.0  0.16312  0.26876  0.12313  1.0000
  H   H24       1.0  0.16244  0.29629  0.04392  1.0000
  H   H25       1.0  0.14834  0.22496  0.00905  1.0000
  C   C23       1.0  0.26782  0.36488  0.27019  1.0000
  C   C24       1.0  0.26875  0.39598  0.26357  1.0000
  H   H26       1.0  0.27430  0.40753  0.20364  1.0000
  H   H27       1.0  0.27403  0.35574  0.21671  1.0000
  C   C25       1.0  0.23786  0.35685  0.07243  1.0000
  C   C26       1.0  0.22333  0.38011  0.06082  1.0000
  H   H28       1.0  0.26413  0.37201  0.08810  1.0000
  H   H29       1.0  0.22489  0.33911  0.12577  1.0000
  H   H30       1.0  0.22466  0.39291  0.12262  1.0000
  H   H31       1.0  0.19722  0.36478  0.04314  1.0000
  H   H32       1.0  0.26858  0.42203  0.00890  1.0000
  C   C27       1.0  0.12879  0.40170  0.27060  1.0000
  C   C28       1.0  0.09767  0.37154  0.26395  1.0000
  H   H33       1.0  0.08611  0.36554  0.20403  1.0000
  H   H34       1.0  0.13795  0.41702  0.21708  1.0000
  C   C29       1.0  0.13668  0.37970  0.07283  1.0000
  C   C30       1.0  0.11346  0.34191  0.06109  1.0000
  H   H35       1.0  0.12149  0.39077  0.08862  1.0000
  H   H36       1.0  0.15443  0.38447  0.12615  1.0000
  H   H37       1.0  0.10066  0.33041  0.12286  1.0000
  H   H38       1.0  0.12883  0.33118  0.04336  1.0000
  H   H39       1.0  0.07152  0.34521  0.00921  1.0000
  C   C31       1.0  0.40039  0.26908  0.27044  1.0000
  C   C32       1.0  0.37022  0.27002  0.26384  1.0000
  H   H40       1.0  0.36423  0.27561  0.20396  1.0000
  H   H41       1.0  0.41575  0.27535  0.21698  1.0000
  C   C33       1.0  0.37853  0.23922  0.07266  1.0000
  C   C34       1.0  0.34073  0.22463  0.06108  1.0000
  H   H42       1.0  0.38960  0.26549  0.08835  1.0000
  H   H43       1.0  0.38333  0.22627  0.12601  1.0000
  H   H44       1.0  0.32927  0.22598  0.12286  1.0000
  H   H45       1.0  0.32998  0.19852  0.04352  1.0000
  H   H46       1.0  0.34403  0.26984  0.00893  1.0000
  C   C35       1.0  0.22446  0.13003  0.27045  1.0000
  C   C36       1.0  0.22349  0.09891  0.26381  1.0000
  H   H47       1.0  0.21792  0.08736  0.20389  1.0000
  H   H48       1.0  0.21829  0.13919  0.21694  1.0000
  C   C37       1.0  0.25441  0.13796  0.07268  1.0000
  C   C38       1.0  0.26892  0.11468  0.06104  1.0000
  H   H49       1.0  0.22813  0.12281  0.08833  1.0000
  H   H50       1.0  0.26738  0.15569  0.12604  1.0000
  H   H51       1.0  0.26756  0.10186  0.12283  1.0000
  H   H52       1.0  0.29504  0.13002  0.04345  1.0000
  H   H53       1.0  0.22369  0.07276  0.00903  1.0000
  C   C39       1.0  0.36351  0.09319  0.27047  1.0000
  C   C40       1.0  0.39465  0.12333  0.26379  1.0000
  H   H54       1.0  0.40624  0.12927  0.20392  1.0000
  H   H55       1.0  0.35436  0.07783  0.21702  1.0000
  C   C41       1.0  0.35568  0.11519  0.07269  1.0000
  C   C42       1.0  0.37894  0.15298  0.06103  1.0000
  H   H56       1.0  0.37084  0.10408  0.08843  1.0000
  H   H57       1.0  0.33794  0.11044  0.12601  1.0000
  H   H58       1.0  0.39178  0.16444  0.12279  1.0000
  H   H59       1.0  0.36360  0.16376  0.04346  1.0000
  H   H60       1.0  0.42079  0.14958  0.00885  1.0000
  C   C43       1.0  0.45948  0.25337  0.32053  1.0000
  C   C44       1.0  0.42492  0.23662  0.33439  1.0000
  C   C45       1.0  0.40868  0.20128  0.33449  1.0000
  H   H61       1.0  0.47137  0.27803  0.33556  1.0000
  N   N7        1.0  0.37510  0.18509  0.33455  1.0000
  C   C46       1.0  0.08360  0.29366  0.33539  1.0000
  C   C47       1.0  0.06744  0.25832  0.33504  1.0000
  C   C48       1.0  0.03292  0.24153  0.32049  1.0000
  N   N8        1.0  0.11717  0.30998  0.33632  1.0000
  H   H62       1.0  0.02105  0.21687  0.33545  1.0000
  H   H63       1.0  0.12775  0.30728  0.38837  1.0000
  H   H64       1.0  0.36505  0.18718  0.38866  1.0000
  C   C49       1.0  0.24018  0.20477  0.32012  1.0000
  C   C50       1.0  0.25693  0.18700  0.33479  1.0000
  C   C51       1.0  0.29227  0.20614  0.33554  1.0000
  H   H65       1.0  0.21551  0.19199  0.33499  1.0000
  N   N9        1.0  0.30846  0.18876  0.33677  1.0000
  C   C52       1.0  0.20003  0.28872  0.33514  1.0000
  C   C53       1.0  0.23537  0.30788  0.33441  1.0000
  C   C54       1.0  0.25214  0.29011  0.31998  1.0000
  N   N10       1.0  0.18387  0.30612  0.33571  1.0000
  H   H66       1.0  0.27681  0.30291  0.33483  1.0000
  H   H67       1.0  0.18580  0.31797  0.39030  1.0000
  H   H68       1.0  0.30640  0.17686  0.39133  1.0000
  C   C55       1.0  0.28882  0.03421  0.32007  1.0000
  C   C56       1.0  0.30653  0.06872  0.33489  1.0000
  C   C57       1.0  0.28734  0.08487  0.33547  1.0000
  H   H69       1.0  0.30162  0.02233  0.33487  1.0000
  N   N11       1.0  0.30447  0.11843  0.33703  1.0000
  C   C58       1.0  0.20490  0.41010  0.33569  1.0000
  C   C59       1.0  0.18575  0.42629  0.33518  1.0000
  C   C60       1.0  0.20352  0.46080  0.32047  1.0000
  N   N12       1.0  0.18775  0.37656  0.33764  1.0000
  H   H70       1.0  0.19074  0.47271  0.33514  1.0000
  H   H71       1.0  0.17431  0.36613  0.38965  1.0000
  H   H72       1.0  0.31818  0.12899  0.38852  1.0000
  C   C61       1.0  0.14624  0.23675  0.33282  1.0000
  C   C62       1.0  0.13436  0.24194  0.41465  1.0000
  C   C63       1.0  0.10511  0.24455  0.41859  1.0000
  C   C64       1.0  0.08543  0.24069  0.34386  1.0000
  N   N13       1.0  0.09496  0.24979  0.49742  1.0000
  C   C65       1.0  0.11076  0.25163  0.57372  1.0000
  C   C66       1.0  0.14030  0.24990  0.57144  1.0000
  N   N14       1.0  0.15094  0.24527  0.49172  1.0000
  C   C67       1.0  0.09659  0.25716  0.65435  1.0000
  H   H73       1.0  0.07008  0.23895  0.65845  1.0000
  H   H74       1.0  0.09921  0.28141  0.64786  1.0000
  C   C68       1.0  0.15777  0.25056  0.65403  1.0000
  H   H75       1.0  0.18424  0.26113  0.64170  1.0000
  C   C69       1.0  0.25690  0.40826  0.33246  1.0000
  C   C70       1.0  0.25184  0.39122  0.41430  1.0000
  C   C71       1.0  0.24912  0.35930  0.41810  1.0000
  C   C72       1.0  0.25300  0.34351  0.34334  1.0000
  N   N15       1.0  0.24384  0.34387  0.49689  1.0000
  C   C73       1.0  0.24200  0.35780  0.57324  1.0000
  C   C74       1.0  0.24380  0.38911  0.57106  1.0000
  N   N16       1.0  0.24849  0.40444  0.49139  1.0000
  C   C75       1.0  0.23628  0.33802  0.65376  1.0000
  H   H76       1.0  0.25438  0.32957  0.65796  1.0000
  H   H77       1.0  0.21196  0.31650  0.64701  1.0000
  C   C76       1.0  0.24301  0.40586  0.65365  1.0000
  H   H78       1.0  0.23243  0.42174  0.64120  1.0000
  C   C77       1.0  0.08533  0.34742  0.33283  1.0000
  C   C78       1.0  0.10239  0.35939  0.41463  1.0000
  C   C79       1.0  0.13423  0.38869  0.41859  1.0000
  C   C80       1.0  0.15012  0.40839  0.34392  1.0000
  N   N17       1.0  0.14963  0.39882  0.49743  1.0000
  C   C81       1.0  0.13572  0.38298  0.57370  1.0000
  C   C82       1.0  0.10446  0.35342  0.57139  1.0000
  N   N18       1.0  0.08918  0.34278  0.49167  1.0000
  C   C83       1.0  0.15549  0.39706  0.65425  1.0000
  H   H79       1.0  0.16383  0.42357  0.65858  1.0000
  H   H80       1.0  0.17708  0.39438  0.64748  1.0000
  C   C84       1.0  0.08771  0.33584  0.65392  1.0000
  H   H81       1.0  0.07185  0.30938  0.64139  1.0000
  C   C85       1.0  0.34609  0.25811  0.33268  1.0000
  C   C86       1.0  0.35802  0.25297  0.41446  1.0000
  C   C87       1.0  0.38726  0.25031  0.41827  1.0000
  C   C88       1.0  0.40700  0.25430  0.34358  1.0000
  N   N19       1.0  0.39743  0.24507  0.49708  1.0000
  C   C89       1.0  0.38165  0.24322  0.57342  1.0000
  C   C90       1.0  0.35211  0.24496  0.57123  1.0000
  N   N20       1.0  0.34146  0.24962  0.49156  1.0000
  C   C91       1.0  0.39582  0.23769  0.65402  1.0000
  H   H82       1.0  0.42233  0.25591  0.65812  1.0000
  H   H83       1.0  0.39320  0.21344  0.64748  1.0000
  C   C92       1.0  0.33462  0.24425  0.65382  1.0000
  H   H84       1.0  0.30815  0.23366  0.64147  1.0000
  C   C93       1.0  0.23527  0.08656  0.33268  1.0000
  C   C94       1.0  0.24038  0.10363  0.41450  1.0000
  C   C95       1.0  0.24311  0.13555  0.41838  1.0000
  C   C96       1.0  0.23927  0.15138  0.34363  1.0000
  N   N21       1.0  0.24842  0.15097  0.49719  1.0000
  C   C97       1.0  0.25028  0.13703  0.57350  1.0000
  C   C98       1.0  0.24847  0.10572  0.57125  1.0000
  N   N22       1.0  0.24374  0.09040  0.49157  1.0000
  C   C99       1.0  0.25601  0.15681  0.65405  1.0000
  H   H85       1.0  0.23793  0.16527  0.65827  1.0000
  H   H86       1.0  0.28033  0.17832  0.64734  1.0000
  C   C100      1.0  0.24926  0.08896  0.65380  1.0000
  H   H87       1.0  0.25987  0.07310  0.64131  1.0000
  C   C101      1.0  0.40691  0.14751  0.33252  1.0000
  C   C102      1.0  0.38986  0.13563  0.41438  1.0000
  C   C103      1.0  0.35802  0.10635  0.41838  1.0000
  C   C104      1.0  0.34216  0.08671  0.34362  1.0000
  N   N23       1.0  0.34263  0.09620  0.49721  1.0000
  C   C105      1.0  0.35658  0.11201  0.57349  1.0000
  C   C106      1.0  0.38785  0.14156  0.57118  1.0000
  N   N24       1.0  0.40311  0.15222  0.49143  1.0000
  C   C107      1.0  0.33685  0.09788  0.65408  1.0000
  H   H88       1.0  0.32853  0.07137  0.65827  1.0000
  H   H89       1.0  0.31524  0.10054  0.64747  1.0000
  C   C108      1.0  0.40465  0.15904  0.65376  1.0000
  H   H90       1.0  0.42058  0.18550  0.64138  1.0000
  C   C109      1.0  0.47812  0.73763  0.29672  1.0000
  C   C110      1.0  0.42534  0.68298  0.31627  1.0000
  C   C111      1.0  0.45903  0.70186  0.28560  1.0000
  C   C112      1.0  0.01427  0.75726  0.29669  1.0000
  C   C113      1.0  0.03333  0.79303  0.28561  1.0000
  C   C114      1.0  0.06699  0.81194  0.31650  1.0000
  N   N25       1.0  0.47235  0.68572  0.24114  1.0000
  N   N26       1.0  0.02005  0.80915  0.24090  1.0000
  H   H91       1.0  0.99162  0.69795  0.20319  1.0000
  H   H92       1.0  0.46089  0.66187  0.23447  1.0000
  H   H93       1.0  0.03137  0.83301  0.23456  1.0000
  H   H94       1.0  0.50070  0.79692  0.20320  1.0000
  H   H95       1.0  0.12928  0.83114  0.30664  1.0000
  H   H96       1.0  0.36316  0.66394  0.30495  1.0000
  C   C115      1.0  0.25596  0.73915  0.29637  1.0000
  C   C116      1.0  0.31059  0.74105  0.31666  1.0000
  C   C117      1.0  0.29173  0.75581  0.28542  1.0000
  C   C118      1.0  0.23637  0.75571  0.29643  1.0000
  C   C119      1.0  0.20060  0.73904  0.28544  1.0000
  C   C120      1.0  0.18173  0.75379  0.31660  1.0000
  N   N27       1.0  0.30788  0.78519  0.24062  1.0000
  N   N28       1.0  0.18445  0.70964  0.24068  1.0000
  H   H97       1.0  0.29571  0.79234  0.20282  1.0000
  H   H98       1.0  0.33175  0.79780  0.23473  1.0000
  H   H99       1.0  0.16058  0.69710  0.23463  1.0000
  H   H100      1.0  0.19663  0.70252  0.20282  1.0000
  H   H101      1.0  0.16276  0.79698  0.30589  1.0000
  H   H102      1.0  0.32960  0.69787  0.30725  1.0000
  C   C121      1.0  0.25443  0.51556  0.29634  1.0000
  C   C122      1.0  0.25246  0.56826  0.31635  1.0000
  C   C123      1.0  0.23774  0.53463  0.28527  1.0000
  C   C124      1.0  0.23788  0.97940  0.29655  1.0000
  C   C125      1.0  0.25454  0.96029  0.28535  1.0000
  C   C126      1.0  0.23978  0.92665  0.31645  1.0000
  N   N29       1.0  0.20833  0.52133  0.24055  1.0000
  N   N30       1.0  0.28394  0.97359  0.24064  1.0000
  H   H103      1.0  0.20134  0.00206  0.20260  1.0000
  H   H104      1.0  0.19585  0.53269  0.23390  1.0000
  H   H105      1.0  0.29635  0.96216  0.23388  1.0000
  H   H106      1.0  0.29088  0.49281  0.20253  1.0000
  H   H107      1.0  0.19655  0.86412  0.30877  1.0000
  H   H108      1.0  0.29558  0.63082  0.30834  1.0000
  C   C127      1.0  0.09191  0.72579  0.27076  1.0000
  C   C128      1.0  0.12206  0.72480  0.26410  1.0000
  H   H109      1.0  0.12800  0.71915  0.20423  1.0000
  H   H110      1.0  0.07654  0.71956  0.21732  1.0000
  C   C129      1.0  0.11388  0.75561  0.07297  1.0000
  C   C130      1.0  0.15167  0.77016  0.06137  1.0000
  H   H111      1.0  0.10278  0.72934  0.08865  1.0000
  H   H112      1.0  0.10910  0.76857  0.12631  1.0000
  H   H113      1.0  0.16312  0.76877  0.12313  1.0000
  H   H114      1.0  0.16244  0.79629  0.04392  1.0000
  H   H115      1.0  0.14834  0.72496  0.00905  1.0000
  C   C131      1.0  0.26782  0.86488  0.27019  1.0000
  C   C132      1.0  0.26875  0.89599  0.26357  1.0000
  H   H116      1.0  0.27430  0.90753  0.20364  1.0000
  H   H117      1.0  0.27403  0.85574  0.21671  1.0000
  C   C133      1.0  0.23786  0.85685  0.07243  1.0000
  C   C134      1.0  0.22333  0.88011  0.06082  1.0000
  H   H118      1.0  0.26413  0.87201  0.08810  1.0000
  H   H119      1.0  0.22489  0.83911  0.12577  1.0000
  H   H120      1.0  0.22467  0.89291  0.12262  1.0000
  H   H121      1.0  0.19722  0.86478  0.04314  1.0000
  H   H122      1.0  0.26858  0.92203  0.00890  1.0000
  C   C135      1.0  0.12879  0.90170  0.27060  1.0000
  C   C136      1.0  0.09767  0.87154  0.26395  1.0000
  H   H123      1.0  0.08611  0.86554  0.20403  1.0000
  H   H124      1.0  0.13795  0.91702  0.21708  1.0000
  C   C137      1.0  0.13668  0.87970  0.07283  1.0000
  C   C138      1.0  0.11346  0.84191  0.06109  1.0000
  H   H125      1.0  0.12149  0.89077  0.08862  1.0000
  H   H126      1.0  0.15443  0.88447  0.12615  1.0000
  H   H127      1.0  0.10066  0.83041  0.12286  1.0000
  H   H128      1.0  0.12883  0.83118  0.04336  1.0000
  H   H129      1.0  0.07152  0.84521  0.00921  1.0000
  C   C139      1.0  0.40039  0.76908  0.27044  1.0000
  C   C140      1.0  0.37022  0.77002  0.26384  1.0000
  H   H130      1.0  0.36423  0.77562  0.20396  1.0000
  H   H131      1.0  0.41575  0.77535  0.21698  1.0000
  C   C141      1.0  0.37853  0.73922  0.07266  1.0000
  C   C142      1.0  0.34073  0.72463  0.06108  1.0000
  H   H132      1.0  0.38960  0.76549  0.08835  1.0000
  H   H133      1.0  0.38333  0.72627  0.12601  1.0000
  H   H134      1.0  0.32927  0.72598  0.12286  1.0000
  H   H135      1.0  0.32999  0.69852  0.04352  1.0000
  H   H136      1.0  0.34403  0.76984  0.00893  1.0000
  C   C143      1.0  0.22446  0.63003  0.27045  1.0000
  C   C144      1.0  0.22349  0.59891  0.26381  1.0000
  H   H137      1.0  0.21792  0.58737  0.20389  1.0000
  H   H138      1.0  0.21829  0.63919  0.21694  1.0000
  C   C145      1.0  0.25441  0.63796  0.07268  1.0000
  C   C146      1.0  0.26892  0.61469  0.06104  1.0000
  H   H139      1.0  0.22813  0.62281  0.08833  1.0000
  H   H140      1.0  0.26738  0.65569  0.12604  1.0000
  H   H141      1.0  0.26756  0.60186  0.12283  1.0000
  H   H142      1.0  0.29504  0.63002  0.04345  1.0000
  H   H143      1.0  0.22369  0.57276  0.00903  1.0000
  C   C147      1.0  0.36351  0.59319  0.27047  1.0000
  C   C148      1.0  0.39465  0.62333  0.26379  1.0000
  H   H144      1.0  0.40624  0.62927  0.20392  1.0000
  H   H145      1.0  0.35436  0.57783  0.21702  1.0000
  C   C149      1.0  0.35568  0.61520  0.07269  1.0000
  C   C150      1.0  0.37894  0.65298  0.06103  1.0000
  H   H146      1.0  0.37084  0.60408  0.08843  1.0000
  H   H147      1.0  0.33794  0.61044  0.12601  1.0000
  H   H148      1.0  0.39178  0.66444  0.12279  1.0000
  H   H149      1.0  0.36360  0.66376  0.04346  1.0000
  H   H150      1.0  0.42079  0.64958  0.00885  1.0000
  C   C151      1.0  0.45948  0.75337  0.32053  1.0000
  C   C152      1.0  0.42492  0.73662  0.33439  1.0000
  C   C153      1.0  0.40868  0.70128  0.33449  1.0000
  H   H151      1.0  0.47137  0.77803  0.33556  1.0000
  N   N31       1.0  0.37510  0.68509  0.33455  1.0000
  C   C154      1.0  0.08361  0.79366  0.33539  1.0000
  C   C155      1.0  0.06744  0.75832  0.33504  1.0000
  C   C156      1.0  0.03292  0.74153  0.32049  1.0000
  N   N32       1.0  0.11717  0.80998  0.33632  1.0000
  H   H152      1.0  0.02105  0.71687  0.33545  1.0000
  H   H153      1.0  0.12775  0.80728  0.38837  1.0000
  H   H154      1.0  0.36505  0.68718  0.38866  1.0000
  C   C157      1.0  0.24018  0.70477  0.32012  1.0000
  C   C158      1.0  0.25693  0.68701  0.33479  1.0000
  C   C159      1.0  0.29227  0.70614  0.33554  1.0000
  H   H155      1.0  0.21551  0.69199  0.33499  1.0000
  N   N33       1.0  0.30846  0.68876  0.33677  1.0000
  C   C160      1.0  0.20003  0.78872  0.33514  1.0000
  C   C161      1.0  0.23537  0.80788  0.33441  1.0000
  C   C162      1.0  0.25214  0.79012  0.31998  1.0000
  N   N34       1.0  0.18387  0.80612  0.33571  1.0000
  H   H156      1.0  0.27681  0.80291  0.33483  1.0000
  H   H157      1.0  0.18580  0.81797  0.39030  1.0000
  H   H158      1.0  0.30640  0.67686  0.39133  1.0000
  C   C163      1.0  0.28882  0.53421  0.32007  1.0000
  C   C164      1.0  0.30653  0.56872  0.33489  1.0000
  C   C165      1.0  0.28734  0.58487  0.33547  1.0000
  H   H159      1.0  0.30162  0.52233  0.33487  1.0000
  N   N35       1.0  0.30447  0.61843  0.33703  1.0000
  C   C166      1.0  0.20490  0.91010  0.33569  1.0000
  C   C167      1.0  0.18575  0.92629  0.33518  1.0000
  C   C168      1.0  0.20352  0.96080  0.32047  1.0000
  N   N36       1.0  0.18775  0.87656  0.33764  1.0000
  H   H160      1.0  0.19074  0.97271  0.33514  1.0000
  H   H161      1.0  0.17431  0.86613  0.38965  1.0000
  H   H162      1.0  0.31818  0.62899  0.38852  1.0000
  C   C169      1.0  0.14624  0.73675  0.33282  1.0000
  C   C170      1.0  0.13437  0.74194  0.41465  1.0000
  C   C171      1.0  0.10511  0.74455  0.41859  1.0000
  C   C172      1.0  0.08543  0.74069  0.34386  1.0000
  N   N37       1.0  0.09496  0.74979  0.49742  1.0000
  C   C173      1.0  0.11076  0.75164  0.57372  1.0000
  C   C174      1.0  0.14030  0.74990  0.57144  1.0000
  N   N38       1.0  0.15094  0.74526  0.49172  1.0000
  C   C175      1.0  0.09659  0.75716  0.65435  1.0000
  H   H163      1.0  0.07008  0.73895  0.65845  1.0000
  H   H164      1.0  0.09921  0.78141  0.64786  1.0000
  C   C176      1.0  0.15777  0.75056  0.65403  1.0000
  H   H165      1.0  0.18424  0.76113  0.64170  1.0000
  C   C177      1.0  0.25690  0.90826  0.33246  1.0000
  C   C178      1.0  0.25184  0.89122  0.41430  1.0000
  C   C179      1.0  0.24912  0.85930  0.41810  1.0000
  C   C180      1.0  0.25301  0.84351  0.34334  1.0000
  N   N39       1.0  0.24384  0.84387  0.49689  1.0000
  C   C181      1.0  0.24200  0.85781  0.57324  1.0000
  C   C182      1.0  0.24380  0.88911  0.57106  1.0000
  N   N40       1.0  0.24849  0.90444  0.49139  1.0000
  C   C183      1.0  0.23628  0.83802  0.65376  1.0000
  H   H166      1.0  0.25438  0.82957  0.65796  1.0000
  H   H167      1.0  0.21196  0.81650  0.64701  1.0000
  C   C184      1.0  0.24301  0.90586  0.65365  1.0000
  H   H168      1.0  0.23243  0.92174  0.64120  1.0000
  C   C185      1.0  0.08533  0.84742  0.33283  1.0000
  C   C186      1.0  0.10239  0.85940  0.41463  1.0000
  C   C187      1.0  0.13423  0.88869  0.41859  1.0000
  C   C188      1.0  0.15012  0.90839  0.34392  1.0000
  N   N41       1.0  0.14963  0.89882  0.49743  1.0000
  C   C189      1.0  0.13572  0.88298  0.57370  1.0000
  C   C190      1.0  0.10446  0.85342  0.57139  1.0000
  N   N42       1.0  0.08918  0.84278  0.49167  1.0000
  C   C191      1.0  0.15549  0.89706  0.65425  1.0000
  H   H169      1.0  0.16383  0.92357  0.65858  1.0000
  H   H170      1.0  0.17708  0.89438  0.64748  1.0000
  C   C192      1.0  0.08771  0.83585  0.65392  1.0000
  H   H171      1.0  0.07185  0.80938  0.64139  1.0000
  C   C193      1.0  0.34609  0.75811  0.33268  1.0000
  C   C194      1.0  0.35802  0.75297  0.41446  1.0000
  C   C195      1.0  0.38726  0.75031  0.41827  1.0000
  C   C196      1.0  0.40701  0.75430  0.34358  1.0000
  N   N43       1.0  0.39743  0.74507  0.49708  1.0000
  C   C197      1.0  0.38165  0.74322  0.57342  1.0000
  C   C198      1.0  0.35211  0.74496  0.57123  1.0000
  N   N44       1.0  0.34146  0.74962  0.49156  1.0000
  C   C199      1.0  0.39582  0.73769  0.65402  1.0000
  H   H172      1.0  0.42233  0.75591  0.65812  1.0000
  H   H173      1.0  0.39320  0.71344  0.64748  1.0000
  C   C200      1.0  0.33462  0.74425  0.65382  1.0000
  H   H174      1.0  0.30815  0.73366  0.64147  1.0000
  C   C201      1.0  0.23527  0.58656  0.33268  1.0000
  C   C202      1.0  0.24038  0.60363  0.41450  1.0000
  C   C203      1.0  0.24311  0.63555  0.41838  1.0000
  C   C204      1.0  0.23927  0.65138  0.34363  1.0000
  N   N45       1.0  0.24842  0.65097  0.49719  1.0000
  C   C205      1.0  0.25028  0.63703  0.57350  1.0000
  C   C206      1.0  0.24847  0.60572  0.57125  1.0000
  N   N46       1.0  0.24374  0.59040  0.49157  1.0000
  C   C207      1.0  0.25601  0.65681  0.65405  1.0000
  H   H175      1.0  0.23793  0.66527  0.65827  1.0000
  H   H176      1.0  0.28033  0.67832  0.64734  1.0000
  C   C208      1.0  0.24926  0.58896  0.65380  1.0000
  H   H177      1.0  0.25987  0.57310  0.64131  1.0000
  C   C209      1.0  0.40691  0.64751  0.33252  1.0000
  C   C210      1.0  0.38986  0.63563  0.41438  1.0000
  C   C211      1.0  0.35802  0.60635  0.41838  1.0000
  C   C212      1.0  0.34216  0.58671  0.34362  1.0000
  N   N47       1.0  0.34263  0.59620  0.49721  1.0000
  C   C213      1.0  0.35658  0.61201  0.57349  1.0000
  C   C214      1.0  0.38785  0.64156  0.57118  1.0000
  N   N48       1.0  0.40311  0.65222  0.49143  1.0000
  C   C215      1.0  0.33685  0.59789  0.65408  1.0000
  H   H178      1.0  0.32853  0.57137  0.65827  1.0000
  H   H179      1.0  0.31524  0.60054  0.64747  1.0000
  C   C216      1.0  0.40465  0.65904  0.65376  1.0000
  H   H180      1.0  0.42058  0.68550  0.64138  1.0000
  C   C217      1.0  0.97812  0.23763  0.29672  1.0000
  C   C218      1.0  0.92534  0.18298  0.31627  1.0000
  C   C219      1.0  0.95903  0.20186  0.28560  1.0000
  C   C220      1.0  0.51427  0.25726  0.29669  1.0000
  C   C221      1.0  0.53333  0.29303  0.28561  1.0000
  C   C222      1.0  0.56699  0.31194  0.31650  1.0000
  N   N49       1.0  0.97235  0.18572  0.24114  1.0000
  N   N50       1.0  0.52005  0.30915  0.24090  1.0000
  H   H181      1.0  0.49162  0.19795  0.20319  1.0000
  H   H182      1.0  0.96089  0.16187  0.23447  1.0000
  H   H183      1.0  0.53137  0.33301  0.23456  1.0000
  H   H184      1.0  0.00070  0.29692  0.20320  1.0000
  H   H185      1.0  0.62928  0.33114  0.30664  1.0000
  H   H186      1.0  0.86316  0.16394  0.30495  1.0000
  C   C223      1.0  0.75596  0.23915  0.29637  1.0000
  C   C224      1.0  0.81059  0.24105  0.31666  1.0000
  C   C225      1.0  0.79173  0.25581  0.28542  1.0000
  C   C226      1.0  0.73637  0.25571  0.29643  1.0000
  C   C227      1.0  0.70059  0.23903  0.28544  1.0000
  C   C228      1.0  0.68173  0.25379  0.31660  1.0000
  N   N51       1.0  0.80788  0.28519  0.24062  1.0000
  N   N52       1.0  0.68445  0.20964  0.24068  1.0000
  H   H187      1.0  0.79571  0.29234  0.20282  1.0000
  H   H188      1.0  0.83176  0.29780  0.23473  1.0000
  H   H189      1.0  0.66058  0.19710  0.23463  1.0000
  H   H190      1.0  0.69663  0.20252  0.20282  1.0000
  H   H191      1.0  0.66276  0.29698  0.30589  1.0000
  H   H192      1.0  0.82960  0.19787  0.30725  1.0000
  C   C229      1.0  0.75443  0.01556  0.29634  1.0000
  C   C230      1.0  0.75246  0.06826  0.31635  1.0000
  C   C231      1.0  0.73774  0.03463  0.28527  1.0000
  C   C232      1.0  0.73788  0.47940  0.29655  1.0000
  C   C233      1.0  0.75454  0.46029  0.28535  1.0000
  C   C234      1.0  0.73979  0.42666  0.31645  1.0000
  N   N53       1.0  0.70833  0.02133  0.24055  1.0000
  N   N54       1.0  0.78394  0.47359  0.24064  1.0000
  H   H193      1.0  0.70134  0.50206  0.20260  1.0000
  H   H194      1.0  0.69585  0.03269  0.23390  1.0000
  H   H195      1.0  0.79635  0.46216  0.23388  1.0000
  H   H196      1.0  0.79088  0.99281  0.20253  1.0000
  H   H197      1.0  0.69655  0.36412  0.30877  1.0000
  H   H198      1.0  0.79558  0.13082  0.30834  1.0000
  C   C235      1.0  0.59191  0.22579  0.27076  1.0000
  C   C236      1.0  0.62206  0.22480  0.26410  1.0000
  H   H199      1.0  0.62799  0.21915  0.20423  1.0000
  H   H200      1.0  0.57654  0.21956  0.21732  1.0000
  C   C237      1.0  0.61388  0.25561  0.07297  1.0000
  C   C238      1.0  0.65167  0.27016  0.06137  1.0000
  H   H201      1.0  0.60278  0.22934  0.08865  1.0000
  H   H202      1.0  0.60910  0.26857  0.12631  1.0000
  H   H203      1.0  0.66312  0.26876  0.12313  1.0000
  H   H204      1.0  0.66244  0.29629  0.04392  1.0000
  H   H205      1.0  0.64834  0.22496  0.00905  1.0000
  C   C239      1.0  0.76782  0.36488  0.27019  1.0000
  C   C240      1.0  0.76875  0.39598  0.26357  1.0000
  H   H206      1.0  0.77430  0.40753  0.20364  1.0000
  H   H207      1.0  0.77403  0.35574  0.21671  1.0000
  C   C241      1.0  0.73786  0.35685  0.07243  1.0000
  C   C242      1.0  0.72333  0.38011  0.06082  1.0000
  H   H208      1.0  0.76413  0.37201  0.08810  1.0000
  H   H209      1.0  0.72489  0.33911  0.12577  1.0000
  H   H210      1.0  0.72466  0.39291  0.12262  1.0000
  H   H211      1.0  0.69722  0.36478  0.04314  1.0000
  H   H212      1.0  0.76858  0.42203  0.00890  1.0000
  C   C243      1.0  0.62879  0.40170  0.27060  1.0000
  C   C244      1.0  0.59767  0.37154  0.26395  1.0000
  H   H213      1.0  0.58611  0.36554  0.20403  1.0000
  H   H214      1.0  0.63795  0.41702  0.21708  1.0000
  C   C245      1.0  0.63668  0.37970  0.07283  1.0000
  C   C246      1.0  0.61346  0.34191  0.06109  1.0000
  H   H215      1.0  0.62149  0.39077  0.08862  1.0000
  H   H216      1.0  0.65443  0.38447  0.12615  1.0000
  H   H217      1.0  0.60066  0.33041  0.12286  1.0000
  H   H218      1.0  0.62883  0.33118  0.04336  1.0000
  H   H219      1.0  0.57152  0.34521  0.00921  1.0000
  C   C247      1.0  0.90039  0.26908  0.27044  1.0000
  C   C248      1.0  0.87022  0.27002  0.26384  1.0000
  H   H220      1.0  0.86423  0.27561  0.20396  1.0000
  H   H221      1.0  0.91575  0.27535  0.21698  1.0000
  C   C249      1.0  0.87853  0.23922  0.07266  1.0000
  C   C250      1.0  0.84074  0.22463  0.06108  1.0000
  H   H222      1.0  0.88960  0.26549  0.08835  1.0000
  H   H223      1.0  0.88333  0.22627  0.12601  1.0000
  H   H224      1.0  0.82927  0.22598  0.12286  1.0000
  H   H225      1.0  0.82999  0.19852  0.04352  1.0000
  H   H226      1.0  0.84403  0.26984  0.00893  1.0000
  C   C251      1.0  0.72446  0.13003  0.27045  1.0000
  C   C252      1.0  0.72349  0.09891  0.26381  1.0000
  H   H227      1.0  0.71792  0.08736  0.20389  1.0000
  H   H228      1.0  0.71829  0.13919  0.21694  1.0000
  C   C253      1.0  0.75441  0.13796  0.07268  1.0000
  C   C254      1.0  0.76892  0.11468  0.06104  1.0000
  H   H229      1.0  0.72813  0.12281  0.08833  1.0000
  H   H230      1.0  0.76738  0.15569  0.12604  1.0000
  H   H231      1.0  0.76756  0.10186  0.12283  1.0000
  H   H232      1.0  0.79504  0.13002  0.04345  1.0000
  H   H233      1.0  0.72369  0.07276  0.00903  1.0000
  C   C255      1.0  0.86351  0.09319  0.27047  1.0000
  C   C256      1.0  0.89465  0.12333  0.26379  1.0000
  H   H234      1.0  0.90624  0.12927  0.20392  1.0000
  H   H235      1.0  0.85436  0.07783  0.21702  1.0000
  C   C257      1.0  0.85568  0.11519  0.07269  1.0000
  C   C258      1.0  0.87894  0.15298  0.06103  1.0000
  H   H236      1.0  0.87084  0.10408  0.08843  1.0000
  H   H237      1.0  0.83794  0.11044  0.12601  1.0000
  H   H238      1.0  0.89178  0.16444  0.12279  1.0000
  H   H239      1.0  0.86360  0.16376  0.04346  1.0000
  H   H240      1.0  0.92079  0.14958  0.00885  1.0000
  C   C259      1.0  0.95948  0.25337  0.32053  1.0000
  C   C260      1.0  0.92492  0.23662  0.33439  1.0000
  C   C261      1.0  0.90868  0.20128  0.33449  1.0000
  H   H241      1.0  0.97137  0.27803  0.33556  1.0000
  N   N55       1.0  0.87510  0.18509  0.33455  1.0000
  C   C262      1.0  0.58361  0.29366  0.33539  1.0000
  C   C263      1.0  0.56744  0.25832  0.33504  1.0000
  C   C264      1.0  0.53292  0.24153  0.32049  1.0000
  N   N56       1.0  0.61717  0.30998  0.33632  1.0000
  H   H242      1.0  0.52105  0.21687  0.33545  1.0000
  H   H243      1.0  0.62775  0.30728  0.38837  1.0000
  H   H244      1.0  0.86505  0.18718  0.38866  1.0000
  C   C265      1.0  0.74018  0.20477  0.32012  1.0000
  C   C266      1.0  0.75693  0.18700  0.33479  1.0000
  C   C267      1.0  0.79227  0.20614  0.33554  1.0000
  H   H245      1.0  0.71551  0.19199  0.33499  1.0000
  N   N57       1.0  0.80846  0.18876  0.33677  1.0000
  C   C268      1.0  0.70003  0.28872  0.33514  1.0000
  C   C269      1.0  0.73537  0.30788  0.33441  1.0000
  C   C270      1.0  0.75214  0.29011  0.31998  1.0000
  N   N58       1.0  0.68387  0.30612  0.33571  1.0000
  H   H246      1.0  0.77681  0.30291  0.33483  1.0000
  H   H247      1.0  0.68580  0.31797  0.39030  1.0000
  H   H248      1.0  0.80640  0.17686  0.39133  1.0000
  C   C271      1.0  0.78882  0.03421  0.32007  1.0000
  C   C272      1.0  0.80653  0.06872  0.33489  1.0000
  C   C273      1.0  0.78734  0.08487  0.33547  1.0000
  H   H249      1.0  0.80162  0.02233  0.33487  1.0000
  N   N59       1.0  0.80448  0.11843  0.33703  1.0000
  C   C274      1.0  0.70490  0.41010  0.33569  1.0000
  C   C275      1.0  0.68575  0.42629  0.33518  1.0000
  C   C276      1.0  0.70352  0.46080  0.32047  1.0000
  N   N60       1.0  0.68775  0.37656  0.33764  1.0000
  H   H250      1.0  0.69074  0.47271  0.33514  1.0000
  H   H251      1.0  0.67431  0.36613  0.38965  1.0000
  H   H252      1.0  0.81818  0.12899  0.38852  1.0000
  C   C277      1.0  0.64624  0.23675  0.33282  1.0000
  C   C278      1.0  0.63436  0.24194  0.41465  1.0000
  C   C279      1.0  0.60511  0.24455  0.41859  1.0000
  C   C280      1.0  0.58544  0.24069  0.34386  1.0000
  N   N61       1.0  0.59496  0.24979  0.49742  1.0000
  C   C281      1.0  0.61076  0.25163  0.57372  1.0000
  C   C282      1.0  0.64030  0.24990  0.57144  1.0000
  N   N62       1.0  0.65094  0.24527  0.49172  1.0000
  C   C283      1.0  0.59659  0.25716  0.65435  1.0000
  H   H253      1.0  0.57008  0.23895  0.65845  1.0000
  H   H254      1.0  0.59921  0.28141  0.64786  1.0000
  C   C284      1.0  0.65777  0.25056  0.65403  1.0000
  H   H255      1.0  0.68424  0.26113  0.64170  1.0000
  C   C285      1.0  0.75690  0.40826  0.33246  1.0000
  C   C286      1.0  0.75184  0.39122  0.41430  1.0000
  C   C287      1.0  0.74912  0.35930  0.41810  1.0000
  C   C288      1.0  0.75301  0.34351  0.34334  1.0000
  N   N63       1.0  0.74384  0.34387  0.49689  1.0000
  C   C289      1.0  0.74200  0.35780  0.57324  1.0000
  C   C290      1.0  0.74380  0.38911  0.57106  1.0000
  N   N64       1.0  0.74849  0.40444  0.49139  1.0000
  C   C291      1.0  0.73628  0.33802  0.65376  1.0000
  H   H256      1.0  0.75437  0.32957  0.65796  1.0000
  H   H257      1.0  0.71196  0.31650  0.64701  1.0000
  C   C292      1.0  0.74301  0.40586  0.65365  1.0000
  H   H258      1.0  0.73243  0.42174  0.64120  1.0000
  C   C293      1.0  0.58533  0.34742  0.33283  1.0000
  C   C294      1.0  0.60239  0.35939  0.41463  1.0000
  C   C295      1.0  0.63423  0.38869  0.41859  1.0000
  C   C296      1.0  0.65012  0.40839  0.34392  1.0000
  N   N65       1.0  0.64963  0.39882  0.49743  1.0000
  C   C297      1.0  0.63572  0.38298  0.57370  1.0000
  C   C298      1.0  0.60446  0.35342  0.57139  1.0000
  N   N66       1.0  0.58918  0.34278  0.49167  1.0000
  C   C299      1.0  0.65549  0.39706  0.65425  1.0000
  H   H259      1.0  0.66383  0.42357  0.65858  1.0000
  H   H260      1.0  0.67708  0.39438  0.64748  1.0000
  C   C300      1.0  0.58771  0.33584  0.65392  1.0000
  H   H261      1.0  0.57185  0.30938  0.64139  1.0000
  C   C301      1.0  0.84609  0.25811  0.33268  1.0000
  C   C302      1.0  0.85803  0.25297  0.41446  1.0000
  C   C303      1.0  0.88726  0.25031  0.41827  1.0000
  C   C304      1.0  0.90700  0.25430  0.34358  1.0000
  N   N67       1.0  0.89743  0.24507  0.49708  1.0000
  C   C305      1.0  0.88165  0.24322  0.57342  1.0000
  C   C306      1.0  0.85211  0.24496  0.57123  1.0000
  N   N68       1.0  0.84146  0.24962  0.49156  1.0000
  C   C307      1.0  0.89582  0.23769  0.65402  1.0000
  H   H262      1.0  0.92233  0.25591  0.65812  1.0000
  H   H263      1.0  0.89320  0.21344  0.64748  1.0000
  C   C308      1.0  0.83462  0.24425  0.65382  1.0000
  H   H264      1.0  0.80815  0.23366  0.64147  1.0000
  C   C309      1.0  0.73527  0.08656  0.33268  1.0000
  C   C310      1.0  0.74038  0.10363  0.41450  1.0000
  C   C311      1.0  0.74311  0.13555  0.41838  1.0000
  C   C312      1.0  0.73927  0.15138  0.34363  1.0000
  N   N69       1.0  0.74842  0.15097  0.49719  1.0000
  C   C313      1.0  0.75028  0.13703  0.57350  1.0000
  C   C314      1.0  0.74847  0.10572  0.57125  1.0000
  N   N70       1.0  0.74374  0.09040  0.49157  1.0000
  C   C315      1.0  0.75601  0.15681  0.65405  1.0000
  H   H265      1.0  0.73793  0.16527  0.65827  1.0000
  H   H266      1.0  0.78033  0.17832  0.64734  1.0000
  C   C316      1.0  0.74926  0.08896  0.65380  1.0000
  H   H267      1.0  0.75987  0.07310  0.64131  1.0000
  C   C317      1.0  0.90691  0.14751  0.33252  1.0000
  C   C318      1.0  0.88986  0.13563  0.41438  1.0000
  C   C319      1.0  0.85802  0.10635  0.41838  1.0000
  C   C320      1.0  0.84216  0.08671  0.34362  1.0000
  N   N71       1.0  0.84263  0.09620  0.49721  1.0000
  C   C321      1.0  0.85658  0.11201  0.57349  1.0000
  C   C322      1.0  0.88785  0.14156  0.57118  1.0000
  N   N72       1.0  0.90311  0.15222  0.49143  1.0000
  C   C323      1.0  0.83685  0.09788  0.65408  1.0000
  H   H268      1.0  0.82853  0.07137  0.65827  1.0000
  H   H269      1.0  0.81524  0.10054  0.64747  1.0000
  C   C324      1.0  0.90465  0.15904  0.65376  1.0000
  H   H270      1.0  0.92058  0.18550  0.64138  1.0000
  C   C325      1.0  0.97812  0.73763  0.29672  1.0000
  C   C326      1.0  0.92534  0.68298  0.31627  1.0000
  C   C327      1.0  0.95903  0.70186  0.28560  1.0000
  C   C328      1.0  0.51427  0.75726  0.29669  1.0000
  C   C329      1.0  0.53333  0.79303  0.28561  1.0000
  C   C330      1.0  0.56699  0.81194  0.31650  1.0000
  N   N73       1.0  0.97235  0.68572  0.24114  1.0000
  N   N74       1.0  0.52005  0.80915  0.24090  1.0000
  H   H271      1.0  0.49162  0.69795  0.20319  1.0000
  H   H272      1.0  0.96089  0.66187  0.23447  1.0000
  H   H273      1.0  0.53137  0.83301  0.23456  1.0000
  H   H274      1.0  0.00070  0.79692  0.20320  1.0000
  H   H275      1.0  0.62928  0.83114  0.30664  1.0000
  H   H276      1.0  0.86316  0.66394  0.30495  1.0000
  C   C331      1.0  0.75596  0.73915  0.29637  1.0000
  C   C332      1.0  0.81059  0.74105  0.31666  1.0000
  C   C333      1.0  0.79173  0.75581  0.28542  1.0000
  C   C334      1.0  0.73637  0.75571  0.29643  1.0000
  C   C335      1.0  0.70060  0.73904  0.28544  1.0000
  C   C336      1.0  0.68173  0.75379  0.31660  1.0000
  N   N75       1.0  0.80788  0.78519  0.24062  1.0000
  N   N76       1.0  0.68445  0.70964  0.24068  1.0000
  H   H277      1.0  0.79571  0.79234  0.20282  1.0000
  H   H278      1.0  0.83176  0.79780  0.23473  1.0000
  H   H279      1.0  0.66058  0.69710  0.23463  1.0000
  H   H280      1.0  0.69663  0.70252  0.20282  1.0000
  H   H281      1.0  0.66276  0.79698  0.30589  1.0000
  H   H282      1.0  0.82960  0.69787  0.30725  1.0000
  C   C337      1.0  0.75443  0.51556  0.29634  1.0000
  C   C338      1.0  0.75246  0.56826  0.31635  1.0000
  C   C339      1.0  0.73774  0.53463  0.28527  1.0000
  C   C340      1.0  0.73788  0.97940  0.29655  1.0000
  C   C341      1.0  0.75454  0.96029  0.28535  1.0000
  C   C342      1.0  0.73978  0.92665  0.31645  1.0000
  N   N77       1.0  0.70833  0.52133  0.24055  1.0000
  N   N78       1.0  0.78394  0.97359  0.24064  1.0000
  H   H283      1.0  0.70134  0.00206  0.20260  1.0000
  H   H284      1.0  0.69585  0.53269  0.23390  1.0000
  H   H285      1.0  0.79635  0.96216  0.23388  1.0000
  H   H286      1.0  0.79088  0.49281  0.20253  1.0000
  H   H287      1.0  0.69655  0.86412  0.30877  1.0000
  H   H288      1.0  0.79558  0.63082  0.30834  1.0000
  C   C343      1.0  0.59191  0.72579  0.27076  1.0000
  C   C344      1.0  0.62206  0.72480  0.26410  1.0000
  H   H289      1.0  0.62800  0.71915  0.20423  1.0000
  H   H290      1.0  0.57654  0.71956  0.21732  1.0000
  C   C345      1.0  0.61388  0.75561  0.07297  1.0000
  C   C346      1.0  0.65167  0.77016  0.06137  1.0000
  H   H291      1.0  0.60278  0.72934  0.08865  1.0000
  H   H292      1.0  0.60910  0.76857  0.12631  1.0000
  H   H293      1.0  0.66312  0.76877  0.12313  1.0000
  H   H294      1.0  0.66244  0.79629  0.04392  1.0000
  H   H295      1.0  0.64834  0.72496  0.00905  1.0000
  C   C347      1.0  0.76782  0.86488  0.27019  1.0000
  C   C348      1.0  0.76875  0.89599  0.26357  1.0000
  H   H296      1.0  0.77430  0.90753  0.20364  1.0000
  H   H297      1.0  0.77403  0.85574  0.21671  1.0000
  C   C349      1.0  0.73786  0.85685  0.07243  1.0000
  C   C350      1.0  0.72333  0.88011  0.06082  1.0000
  H   H298      1.0  0.76413  0.87201  0.08810  1.0000
  H   H299      1.0  0.72489  0.83911  0.12577  1.0000
  H   H300      1.0  0.72467  0.89291  0.12262  1.0000
  H   H301      1.0  0.69722  0.86478  0.04314  1.0000
  H   H302      1.0  0.76858  0.92203  0.00890  1.0000
  C   C351      1.0  0.62879  0.90170  0.27060  1.0000
  C   C352      1.0  0.59767  0.87154  0.26395  1.0000
  H   H303      1.0  0.58611  0.86554  0.20403  1.0000
  H   H304      1.0  0.63795  0.91702  0.21708  1.0000
  C   C353      1.0  0.63668  0.87970  0.07283  1.0000
  C   C354      1.0  0.61346  0.84191  0.06109  1.0000
  H   H305      1.0  0.62149  0.89077  0.08862  1.0000
  H   H306      1.0  0.65443  0.88447  0.12615  1.0000
  H   H307      1.0  0.60066  0.83041  0.12286  1.0000
  H   H308      1.0  0.62883  0.83118  0.04336  1.0000
  H   H309      1.0  0.57152  0.84521  0.00921  1.0000
  C   C355      1.0  0.90039  0.76908  0.27044  1.0000
  C   C356      1.0  0.87022  0.77002  0.26384  1.0000
  H   H310      1.0  0.86423  0.77562  0.20396  1.0000
  H   H311      1.0  0.91575  0.77535  0.21698  1.0000
  C   C357      1.0  0.87853  0.73922  0.07266  1.0000
  C   C358      1.0  0.84074  0.72463  0.06108  1.0000
  H   H312      1.0  0.88960  0.76549  0.08835  1.0000
  H   H313      1.0  0.88333  0.72627  0.12601  1.0000
  H   H314      1.0  0.82927  0.72598  0.12286  1.0000
  H   H315      1.0  0.82998  0.69852  0.04352  1.0000
  H   H316      1.0  0.84403  0.76984  0.00893  1.0000
  C   C359      1.0  0.72446  0.63003  0.27045  1.0000
  C   C360      1.0  0.72349  0.59891  0.26381  1.0000
  H   H317      1.0  0.71792  0.58737  0.20389  1.0000
  H   H318      1.0  0.71829  0.63919  0.21694  1.0000
  C   C361      1.0  0.75441  0.63796  0.07268  1.0000
  C   C362      1.0  0.76892  0.61469  0.06104  1.0000
  H   H319      1.0  0.72813  0.62281  0.08833  1.0000
  H   H320      1.0  0.76738  0.65569  0.12604  1.0000
  H   H321      1.0  0.76756  0.60186  0.12283  1.0000
  H   H322      1.0  0.79504  0.63002  0.04345  1.0000
  H   H323      1.0  0.72369  0.57276  0.00903  1.0000
  C   C363      1.0  0.86351  0.59319  0.27047  1.0000
  C   C364      1.0  0.89465  0.62333  0.26379  1.0000
  H   H324      1.0  0.90624  0.62927  0.20392  1.0000
  H   H325      1.0  0.85436  0.57783  0.21702  1.0000
  C   C365      1.0  0.85568  0.61520  0.07269  1.0000
  C   C366      1.0  0.87894  0.65298  0.06103  1.0000
  H   H326      1.0  0.87084  0.60408  0.08843  1.0000
  H   H327      1.0  0.83794  0.61044  0.12601  1.0000
  H   H328      1.0  0.89178  0.66444  0.12279  1.0000
  H   H329      1.0  0.86360  0.66376  0.04346  1.0000
  H   H330      1.0  0.92079  0.64958  0.00885  1.0000
  C   C367      1.0  0.95948  0.75337  0.32053  1.0000
  C   C368      1.0  0.92492  0.73662  0.33439  1.0000
  C   C369      1.0  0.90868  0.70128  0.33449  1.0000
  H   H331      1.0  0.97137  0.77803  0.33556  1.0000
  N   N79       1.0  0.87510  0.68509  0.33455  1.0000
  C   C370      1.0  0.58361  0.79366  0.33539  1.0000
  C   C371      1.0  0.56744  0.75832  0.33504  1.0000
  C   C372      1.0  0.53292  0.74153  0.32049  1.0000
  N   N80       1.0  0.61717  0.80998  0.33632  1.0000
  H   H332      1.0  0.52105  0.71687  0.33545  1.0000
  H   H333      1.0  0.62775  0.80728  0.38837  1.0000
  H   H334      1.0  0.86506  0.68718  0.38866  1.0000
  C   C373      1.0  0.74018  0.70477  0.32012  1.0000
  C   C374      1.0  0.75693  0.68701  0.33479  1.0000
  C   C375      1.0  0.79227  0.70614  0.33554  1.0000
  H   H335      1.0  0.71551  0.69199  0.33499  1.0000
  N   N81       1.0  0.80846  0.68876  0.33677  1.0000
  C   C376      1.0  0.70003  0.78872  0.33514  1.0000
  C   C377      1.0  0.73537  0.80788  0.33441  1.0000
  C   C378      1.0  0.75214  0.79012  0.31998  1.0000
  N   N82       1.0  0.68387  0.80612  0.33571  1.0000
  H   H336      1.0  0.77681  0.80291  0.33483  1.0000
  H   H337      1.0  0.68580  0.81797  0.39030  1.0000
  H   H338      1.0  0.80640  0.67686  0.39133  1.0000
  C   C379      1.0  0.78882  0.53421  0.32007  1.0000
  C   C380      1.0  0.80653  0.56872  0.33489  1.0000
  C   C381      1.0  0.78734  0.58487  0.33547  1.0000
  H   H339      1.0  0.80162  0.52233  0.33487  1.0000
  N   N83       1.0  0.80447  0.61843  0.33703  1.0000
  C   C382      1.0  0.70490  0.91010  0.33569  1.0000
  C   C383      1.0  0.68575  0.92629  0.33518  1.0000
  C   C384      1.0  0.70352  0.96080  0.32047  1.0000
  N   N84       1.0  0.68775  0.87656  0.33764  1.0000
  H   H340      1.0  0.69074  0.97271  0.33514  1.0000
  H   H341      1.0  0.67431  0.86613  0.38965  1.0000
  H   H342      1.0  0.81818  0.62899  0.38852  1.0000
  C   C385      1.0  0.64624  0.73675  0.33282  1.0000
  C   C386      1.0  0.63436  0.74194  0.41465  1.0000
  C   C387      1.0  0.60511  0.74455  0.41859  1.0000
  C   C388      1.0  0.58543  0.74069  0.34386  1.0000
  N   N85       1.0  0.59496  0.74979  0.49742  1.0000
  C   C389      1.0  0.61076  0.75164  0.57372  1.0000
  C   C390      1.0  0.64030  0.74990  0.57144  1.0000
  N   N86       1.0  0.65094  0.74526  0.49172  1.0000
  C   C391      1.0  0.59659  0.75716  0.65435  1.0000
  H   H343      1.0  0.57008  0.73895  0.65845  1.0000
  H   H344      1.0  0.59922  0.78141  0.64786  1.0000
  C   C392      1.0  0.65777  0.75056  0.65403  1.0000
  H   H345      1.0  0.68424  0.76113  0.64170  1.0000
  C   C393      1.0  0.75690  0.90826  0.33246  1.0000
  C   C394      1.0  0.75184  0.89122  0.41430  1.0000
  C   C395      1.0  0.74912  0.85930  0.41810  1.0000
  C   C396      1.0  0.75301  0.84351  0.34334  1.0000
  N   N87       1.0  0.74384  0.84387  0.49689  1.0000
  C   C397      1.0  0.74200  0.85781  0.57324  1.0000
  C   C398      1.0  0.74380  0.88911  0.57106  1.0000
  N   N88       1.0  0.74849  0.90444  0.49139  1.0000
  C   C399      1.0  0.73628  0.83802  0.65376  1.0000
  H   H346      1.0  0.75438  0.82957  0.65796  1.0000
  H   H347      1.0  0.71196  0.81650  0.64701  1.0000
  C   C400      1.0  0.74301  0.90586  0.65365  1.0000
  H   H348      1.0  0.73243  0.92174  0.64120  1.0000
  C   C401      1.0  0.58533  0.84742  0.33283  1.0000
  C   C402      1.0  0.60239  0.85940  0.41463  1.0000
  C   C403      1.0  0.63423  0.88869  0.41859  1.0000
  C   C404      1.0  0.65012  0.90839  0.34392  1.0000
  N   N89       1.0  0.64963  0.89882  0.49743  1.0000
  C   C405      1.0  0.63572  0.88298  0.57370  1.0000
  C   C406      1.0  0.60446  0.85342  0.57139  1.0000
  N   N90       1.0  0.58918  0.84278  0.49167  1.0000
  C   C407      1.0  0.65549  0.89706  0.65425  1.0000
  H   H349      1.0  0.66383  0.92357  0.65858  1.0000
  H   H350      1.0  0.67708  0.89438  0.64748  1.0000
  C   C408      1.0  0.58771  0.83585  0.65392  1.0000
  H   H351      1.0  0.57185  0.80938  0.64139  1.0000
  C   C409      1.0  0.84609  0.75811  0.33268  1.0000
  C   C410      1.0  0.85803  0.75297  0.41446  1.0000
  C   C411      1.0  0.88726  0.75031  0.41827  1.0000
  C   C412      1.0  0.90700  0.75430  0.34358  1.0000
  N   N91       1.0  0.89743  0.74507  0.49708  1.0000
  C   C413      1.0  0.88165  0.74322  0.57342  1.0000
  C   C414      1.0  0.85211  0.74496  0.57123  1.0000
  N   N92       1.0  0.84146  0.74962  0.49156  1.0000
  C   C415      1.0  0.89582  0.73769  0.65402  1.0000
  H   H352      1.0  0.92233  0.75591  0.65812  1.0000
  H   H353      1.0  0.89320  0.71344  0.64748  1.0000
  C   C416      1.0  0.83462  0.74425  0.65382  1.0000
  H   H354      1.0  0.80815  0.73366  0.64147  1.0000
  C   C417      1.0  0.73527  0.58656  0.33268  1.0000
  C   C418      1.0  0.74038  0.60363  0.41450  1.0000
  C   C419      1.0  0.74311  0.63555  0.41838  1.0000
  C   C420      1.0  0.73927  0.65138  0.34363  1.0000
  N   N93       1.0  0.74842  0.65097  0.49719  1.0000
  C   C421      1.0  0.75028  0.63703  0.57350  1.0000
  C   C422      1.0  0.74847  0.60572  0.57125  1.0000
  N   N94       1.0  0.74374  0.59040  0.49157  1.0000
  C   C423      1.0  0.75601  0.65681  0.65405  1.0000
  H   H355      1.0  0.73793  0.66527  0.65827  1.0000
  H   H356      1.0  0.78033  0.67832  0.64734  1.0000
  C   C424      1.0  0.74926  0.58896  0.65380  1.0000
  H   H357      1.0  0.75987  0.57310  0.64131  1.0000
  C   C425      1.0  0.90691  0.64751  0.33252  1.0000
  C   C426      1.0  0.88986  0.63563  0.41438  1.0000
  C   C427      1.0  0.85802  0.60635  0.41838  1.0000
  C   C428      1.0  0.84216  0.58671  0.34362  1.0000
  N   N95       1.0  0.84263  0.59620  0.49721  1.0000
  C   C429      1.0  0.85658  0.61201  0.57349  1.0000
  C   C430      1.0  0.88785  0.64156  0.57118  1.0000
  N   N96       1.0  0.90311  0.65222  0.49143  1.0000
  C   C431      1.0  0.83685  0.59789  0.65408  1.0000
  H   H358      1.0  0.82853  0.57137  0.65827  1.0000
  H   H359      1.0  0.81524  0.60054  0.64747  1.0000
  C   C432      1.0  0.90465  0.65904  0.65376  1.0000
  H   H360      1.0  0.92058  0.68550  0.64138  1.0000
