data_image0
_chemical_formula_structural       C5HCH3C2H2C2H2C2H2C2H2C2H2C2H2C4H2C4H2C2HC4H2C4H2C2HC4H2C4H2C4H2C4H2C4H2C4H2CNCNCNC18H12CNCNCNC18H12CNCNCNC18H12CNCNCNC18H12CNCNCNC18H12CNCNCNC18H12CNCNCNC18H12CNCNCNC18H12CNCNCNC18H12CNCNCNC18H12CNCNCNC18H12CNCNCNC18H12C4H2C4H2C4H2C4H2C4H2C4H2C2H2C2H2CHC2H2C2H2CHC2H2C2H2C2H2C2H2C2H2C2H2
_chemical_formula_sum              "C360 H216 N36"
_cell_length_a       74.3515
_cell_length_b       74.3516
_cell_length_c       14.9888
_cell_angle_alpha    90
_cell_angle_beta     90
_cell_angle_gamma    120

_space_group_name_H-M_alt    "P 1"
_space_group_IT_number       1

loop_
  _space_group_symop_operation_xyz
  'x, y, z'

loop_
  _atom_site_type_symbol
  _atom_site_label
  _atom_site_symmetry_multiplicity
  _atom_site_fract_x
  _atom_site_fract_y
  _atom_site_fract_z
  _atom_site_occupancy
  C   C1        1.0  0.00704  0.79871  0.25250  1.0000
  C   C2        1.0  0.00704  0.19516  0.25249  1.0000
  C   C3        1.0  0.00704  0.79870  0.41509  1.0000
  C   C4        1.0  0.00704  0.19517  0.41509  1.0000
  C   C5        1.0  0.01813  0.80427  0.33380  1.0000
  H   H1        1.0  0.01478  0.80259  0.19283  1.0000
  C   C6        1.0  0.01813  0.20070  0.33379  1.0000
  H   H2        1.0  0.01478  0.19902  0.19283  1.0000
  H   H3        1.0  0.01478  0.80258  0.47476  1.0000
  H   H4        1.0  0.01478  0.19903  0.47476  1.0000
  C   C7        1.0  0.18856  0.37639  0.25310  1.0000
  C   C8        1.0  0.19949  0.39824  0.25311  1.0000
  H   H5        1.0  0.18470  0.36865  0.19344  1.0000
  H   H6        1.0  0.20336  0.40599  0.19345  1.0000
  C   C9        1.0  0.61120  0.79901  0.25311  1.0000
  C   C10       1.0  0.58935  0.78808  0.25311  1.0000
  H   H7        1.0  0.61894  0.80288  0.19345  1.0000
  H   H8        1.0  0.58160  0.78421  0.19345  1.0000
  C   C11       1.0  0.18857  0.79902  0.25311  1.0000
  C   C12       1.0  0.19950  0.78809  0.25311  1.0000
  H   H9        1.0  0.18470  0.80289  0.19345  1.0000
  H   H10       1.0  0.20337  0.78422  0.19345  1.0000
  C   C13       1.0  0.80366  0.60657  0.25310  1.0000
  C   C14       1.0  0.79273  0.58471  0.25311  1.0000
  H   H11       1.0  0.80753  0.61431  0.19344  1.0000
  H   H12       1.0  0.78886  0.57696  0.19345  1.0000
  C   C15       1.0  0.38102  0.18393  0.25310  1.0000
  C   C16       1.0  0.40288  0.19486  0.25311  1.0000
  H   H13       1.0  0.37328  0.18006  0.19344  1.0000
  H   H14       1.0  0.41062  0.19873  0.19345  1.0000
  C   C17       1.0  0.80365  0.18393  0.25310  1.0000
  C   C18       1.0  0.79272  0.19485  0.25311  1.0000
  H   H15       1.0  0.80753  0.18005  0.19345  1.0000
  H   H16       1.0  0.78885  0.19872  0.19345  1.0000
  C   C19       1.0  0.19980  0.18424  0.25249  1.0000
  C   C20       1.0  0.18887  0.19517  0.25250  1.0000
  C   C21       1.0  0.18332  0.20070  0.33380  1.0000
  C   C22       1.0  0.20533  0.17868  0.33379  1.0000
  H   H17       1.0  0.18499  0.19902  0.19283  1.0000
  H   H18       1.0  0.20366  0.18035  0.19283  1.0000
  C   C23       1.0  0.80335  0.00240  0.25249  1.0000
  C   C24       1.0  0.79242  0.98054  0.25250  1.0000
  C   C25       1.0  0.78689  0.96945  0.33380  1.0000
  C   C26       1.0  0.80891  0.01349  0.33379  1.0000
  H   H19       1.0  0.78856  0.97280  0.19283  1.0000
  H   H20       1.0  0.80723  0.01014  0.19283  1.0000
  C   C27       1.0  0.98518  0.78778  0.25249  1.0000
  C   C28       1.0  0.97409  0.78225  0.33379  1.0000
  H   H21       1.0  0.97744  0.78392  0.19283  1.0000
  C   C29       1.0  0.79242  0.79871  0.25249  1.0000
  C   C30       1.0  0.80335  0.78778  0.25250  1.0000
  C   C31       1.0  0.80891  0.78225  0.33380  1.0000
  C   C32       1.0  0.78689  0.80427  0.33379  1.0000
  H   H22       1.0  0.80723  0.78392  0.19283  1.0000
  H   H23       1.0  0.78856  0.80259  0.19283  1.0000
  C   C33       1.0  0.18888  0.98054  0.25249  1.0000
  C   C34       1.0  0.19981  0.00240  0.25250  1.0000
  C   C35       1.0  0.20534  0.01349  0.33380  1.0000
  C   C36       1.0  0.18331  0.96945  0.33379  1.0000
  H   H24       1.0  0.20366  0.01014  0.19283  1.0000
  H   H25       1.0  0.18499  0.97280  0.19283  1.0000
  C   C37       1.0  0.98518  0.18423  0.25250  1.0000
  C   C38       1.0  0.97409  0.17868  0.33380  1.0000
  H   H26       1.0  0.97744  0.18035  0.19283  1.0000
  C   C39       1.0  0.20989  0.60784  0.25239  1.0000
  C   C40       1.0  0.20992  0.58893  0.25246  1.0000
  C   C41       1.0  0.21065  0.57965  0.33366  1.0000
  C   C42       1.0  0.21058  0.61782  0.33361  1.0000
  H   H27       1.0  0.21216  0.58348  0.19315  1.0000
  H   H28       1.0  0.21213  0.61552  0.19308  1.0000
  C   C43       1.0  0.37976  0.58890  0.25238  1.0000
  C   C44       1.0  0.39870  0.60782  0.25235  1.0000
  C   C45       1.0  0.40797  0.61782  0.33356  1.0000
  C   C46       1.0  0.36975  0.57962  0.33356  1.0000
  H   H29       1.0  0.40416  0.61549  0.19303  1.0000
  H   H30       1.0  0.37212  0.58345  0.19299  1.0000
  C   C47       1.0  0.39863  0.77755  0.25262  1.0000
  C   C48       1.0  0.37971  0.77756  0.25257  1.0000
  C   C49       1.0  0.36973  0.77693  0.33376  1.0000
  C   C50       1.0  0.40797  0.77695  0.33387  1.0000
  H   H31       1.0  0.37202  0.77529  0.19325  1.0000
  H   H32       1.0  0.40406  0.77532  0.19327  1.0000
  C   C51       1.0  0.78218  0.37505  0.25253  1.0000
  C   C52       1.0  0.78226  0.39402  0.25242  1.0000
  C   C53       1.0  0.78161  0.40333  0.33362  1.0000
  C   C54       1.0  0.78156  0.36509  0.33374  1.0000
  H   H33       1.0  0.78007  0.39947  0.19303  1.0000
  H   H34       1.0  0.78003  0.36741  0.19317  1.0000
  C   C55       1.0  0.61247  0.39405  0.25237  1.0000
  C   C56       1.0  0.59354  0.37511  0.25246  1.0000
  C   C57       1.0  0.58427  0.36510  0.33367  1.0000
  C   C58       1.0  0.62248  0.40334  0.33352  1.0000
  H   H35       1.0  0.58809  0.36744  0.19315  1.0000
  H   H36       1.0  0.62013  0.39948  0.19303  1.0000
  C   C59       1.0  0.59354  0.20525  0.25237  1.0000
  C   C60       1.0  0.61245  0.20522  0.25234  1.0000
  C   C61       1.0  0.62246  0.20596  0.33355  1.0000
  C   C62       1.0  0.58426  0.20598  0.33355  1.0000
  H   H37       1.0  0.62013  0.20744  0.19303  1.0000
  H   H38       1.0  0.58809  0.20744  0.19299  1.0000
  C   C63       1.0  0.13880  0.24468  0.33392  1.0000
  N   N1        1.0  0.14886  0.26579  0.33404  1.0000
  C   C64       1.0  0.13880  0.27684  0.33411  1.0000
  N   N2        1.0  0.11769  0.26579  0.33404  1.0000
  C   C65       1.0  0.10663  0.24468  0.33392  1.0000
  N   N3        1.0  0.11768  0.23460  0.33386  1.0000
  C   C66       1.0  0.14988  0.29901  0.33423  1.0000
  C   C67       1.0  0.17191  0.31043  0.33428  1.0000
  C   C68       1.0  0.18286  0.33228  0.33436  1.0000
  C   C69       1.0  0.17206  0.34338  0.33440  1.0000
  C   C70       1.0  0.15016  0.33228  0.33436  1.0000
  C   C71       1.0  0.13927  0.31043  0.33428  1.0000
  C   C72       1.0  0.14995  0.23365  0.33387  1.0000
  C   C73       1.0  0.17198  0.24432  0.33388  1.0000
  C   C74       1.0  0.18301  0.23349  0.33384  1.0000
  C   C75       1.0  0.17228  0.21160  0.33380  1.0000
  C   C76       1.0  0.15038  0.20074  0.33379  1.0000
  C   C77       1.0  0.13941  0.21163  0.33382  1.0000
  C   C78       1.0  0.08446  0.23365  0.33386  1.0000
  C   C79       1.0  0.07297  0.21163  0.33381  1.0000
  C   C80       1.0  0.05111  0.20074  0.33378  1.0000
  C   C81       1.0  0.04007  0.21159  0.33379  1.0000
  C   C82       1.0  0.05124  0.23349  0.33383  1.0000
  C   C83       1.0  0.07309  0.24432  0.33386  1.0000
  H   H39       1.0  0.19890  0.24171  0.33386  1.0000
  H   H40       1.0  0.18037  0.26020  0.33390  1.0000
  H   H41       1.0  0.14226  0.18484  0.33376  1.0000
  H   H42       1.0  0.12354  0.20315  0.33382  1.0000
  H   H43       1.0  0.08037  0.20315  0.33381  1.0000
  H   H44       1.0  0.04333  0.18483  0.33375  1.0000
  H   H45       1.0  0.08058  0.26020  0.33389  1.0000
  H   H46       1.0  0.04356  0.24171  0.33384  1.0000
  H   H47       1.0  0.12340  0.30298  0.33424  1.0000
  H   H48       1.0  0.14200  0.34001  0.33438  1.0000
  H   H49       1.0  0.19876  0.34001  0.33438  1.0000
  H   H50       1.0  0.18034  0.30299  0.33425  1.0000
  C   C84       1.0  0.74291  0.88096  0.33392  1.0000
  N   N4        1.0  0.72180  0.86990  0.33404  1.0000
  C   C85       1.0  0.71074  0.84879  0.33411  1.0000
  N   N5        1.0  0.72180  0.83873  0.33404  1.0000
  C   C86       1.0  0.74291  0.84878  0.33391  1.0000
  N   N6        1.0  0.75299  0.86991  0.33386  1.0000
  C   C87       1.0  0.68858  0.83770  0.33423  1.0000
  C   C88       1.0  0.67716  0.84831  0.33428  1.0000
  C   C89       1.0  0.65531  0.83742  0.33437  1.0000
  C   C90       1.0  0.64421  0.81552  0.33441  1.0000
  C   C91       1.0  0.65531  0.80472  0.33436  1.0000
  C   C92       1.0  0.67716  0.81568  0.33428  1.0000
  C   C93       1.0  0.75394  0.90313  0.33386  1.0000
  C   C94       1.0  0.74327  0.91449  0.33387  1.0000
  C   C95       1.0  0.75409  0.93635  0.33384  1.0000
  C   C96       1.0  0.77599  0.94752  0.33380  1.0000
  C   C97       1.0  0.78685  0.93647  0.33379  1.0000
  C   C98       1.0  0.77596  0.91462  0.33382  1.0000
  C   C99       1.0  0.75393  0.83764  0.33386  1.0000
  C   C100      1.0  0.77596  0.84817  0.33381  1.0000
  C   C101      1.0  0.78685  0.83721  0.33378  1.0000
  C   C102      1.0  0.77599  0.81530  0.33379  1.0000
  C   C103      1.0  0.75409  0.80458  0.33383  1.0000
  C   C104      1.0  0.74327  0.81561  0.33386  1.0000
  H   H51       1.0  0.74587  0.94403  0.33386  1.0000
  H   H52       1.0  0.72739  0.90700  0.33390  1.0000
  H   H53       1.0  0.80275  0.94426  0.33376  1.0000
  H   H54       1.0  0.78443  0.90722  0.33382  1.0000
  H   H55       1.0  0.78443  0.86405  0.33381  1.0000
  H   H56       1.0  0.80275  0.84533  0.33376  1.0000
  H   H57       1.0  0.72739  0.80722  0.33389  1.0000
  H   H58       1.0  0.74587  0.78868  0.33384  1.0000
  H   H59       1.0  0.68461  0.80725  0.33424  1.0000
  H   H60       1.0  0.64758  0.78882  0.33438  1.0000
  H   H61       1.0  0.64757  0.84558  0.33439  1.0000
  H   H62       1.0  0.68460  0.86419  0.33425  1.0000
  C   C105      1.0  0.10663  0.84879  0.33392  1.0000
  N   N7        1.0  0.11769  0.83873  0.33404  1.0000
  C   C106      1.0  0.13879  0.84879  0.33410  1.0000
  N   N8        1.0  0.14885  0.86990  0.33404  1.0000
  C   C107      1.0  0.13880  0.88096  0.33391  1.0000
  N   N9        1.0  0.11767  0.86991  0.33386  1.0000
  C   C108      1.0  0.14988  0.83771  0.33423  1.0000
  C   C109      1.0  0.13927  0.81568  0.33428  1.0000
  C   C110      1.0  0.15016  0.80472  0.33437  1.0000
  C   C111      1.0  0.17206  0.81552  0.33440  1.0000
  C   C112      1.0  0.18286  0.83742  0.33436  1.0000
  C   C113      1.0  0.17190  0.84831  0.33428  1.0000
  C   C114      1.0  0.08446  0.83764  0.33387  1.0000
  C   C115      1.0  0.07309  0.81561  0.33387  1.0000
  C   C116      1.0  0.05124  0.80458  0.33384  1.0000
  C   C117      1.0  0.04007  0.81530  0.33380  1.0000
  C   C118      1.0  0.05111  0.83721  0.33379  1.0000
  C   C119      1.0  0.07296  0.84817  0.33382  1.0000
  C   C120      1.0  0.14994  0.90313  0.33386  1.0000
  C   C121      1.0  0.13941  0.91462  0.33381  1.0000
  C   C122      1.0  0.15038  0.93648  0.33378  1.0000
  C   C123      1.0  0.17228  0.94752  0.33379  1.0000
  C   C124      1.0  0.18300  0.93635  0.33383  1.0000
  C   C125      1.0  0.17198  0.91449  0.33386  1.0000
  H   H63       1.0  0.04356  0.78868  0.33386  1.0000
  H   H64       1.0  0.08058  0.80722  0.33390  1.0000
  H   H65       1.0  0.04333  0.84533  0.33376  1.0000
  H   H66       1.0  0.08036  0.86405  0.33382  1.0000
  H   H67       1.0  0.12354  0.90722  0.33381  1.0000
  H   H68       1.0  0.14226  0.94426  0.33376  1.0000
  H   H69       1.0  0.18036  0.90700  0.33389  1.0000
  H   H70       1.0  0.19890  0.94403  0.33384  1.0000
  H   H71       1.0  0.18034  0.86419  0.33424  1.0000
  H   H72       1.0  0.19876  0.84559  0.33438  1.0000
  H   H73       1.0  0.14200  0.78882  0.33439  1.0000
  H   H74       1.0  0.12339  0.80725  0.33425  1.0000
  C   C126      1.0  0.85343  0.73827  0.33392  1.0000
  N   N10       1.0  0.84337  0.71716  0.33404  1.0000
  C   C127      1.0  0.85343  0.70611  0.33410  1.0000
  N   N11       1.0  0.87454  0.71716  0.33404  1.0000
  C   C128      1.0  0.88560  0.73827  0.33392  1.0000
  N   N12       1.0  0.87455  0.74835  0.33386  1.0000
  C   C129      1.0  0.84235  0.68394  0.33423  1.0000
  C   C130      1.0  0.82032  0.67252  0.33428  1.0000
  C   C131      1.0  0.80936  0.65067  0.33436  1.0000
  C   C132      1.0  0.82017  0.63957  0.33440  1.0000
  C   C133      1.0  0.84206  0.65067  0.33436  1.0000
  C   C134      1.0  0.85295  0.67252  0.33428  1.0000
  C   C135      1.0  0.84228  0.74930  0.33387  1.0000
  C   C136      1.0  0.82025  0.73863  0.33388  1.0000
  C   C137      1.0  0.80922  0.74945  0.33384  1.0000
  C   C138      1.0  0.81995  0.77135  0.33380  1.0000
  C   C139      1.0  0.84185  0.78221  0.33379  1.0000
  C   C140      1.0  0.85281  0.77132  0.33382  1.0000
  C   C141      1.0  0.90777  0.74930  0.33386  1.0000
  C   C142      1.0  0.91926  0.77132  0.33381  1.0000
  C   C143      1.0  0.94112  0.78221  0.33378  1.0000
  C   C144      1.0  0.95216  0.77135  0.33379  1.0000
  C   C145      1.0  0.94099  0.74945  0.33383  1.0000
  C   C146      1.0  0.91913  0.73863  0.33386  1.0000
  H   H75       1.0  0.79332  0.74123  0.33386  1.0000
  H   H76       1.0  0.81186  0.72275  0.33390  1.0000
  H   H77       1.0  0.84997  0.79811  0.33376  1.0000
  H   H78       1.0  0.86869  0.77980  0.33382  1.0000
  H   H79       1.0  0.91186  0.77980  0.33381  1.0000
  H   H80       1.0  0.94890  0.79811  0.33376  1.0000
  H   H81       1.0  0.91165  0.72275  0.33389  1.0000
  H   H82       1.0  0.94867  0.74123  0.33384  1.0000
  H   H83       1.0  0.86883  0.67997  0.33424  1.0000
  H   H84       1.0  0.85023  0.64294  0.33438  1.0000
  H   H85       1.0  0.79346  0.64294  0.33438  1.0000
  H   H86       1.0  0.81189  0.67997  0.33424  1.0000
  C   C147      1.0  0.24932  0.10199  0.33392  1.0000
  N   N13       1.0  0.27043  0.11305  0.33404  1.0000
  C   C148      1.0  0.28148  0.13416  0.33411  1.0000
  N   N14       1.0  0.27043  0.14422  0.33404  1.0000
  C   C149      1.0  0.24932  0.13416  0.33392  1.0000
  N   N15       1.0  0.23924  0.11304  0.33386  1.0000
  C   C150      1.0  0.30364  0.14524  0.33423  1.0000
  C   C151      1.0  0.31507  0.13463  0.33428  1.0000
  C   C152      1.0  0.33692  0.14553  0.33436  1.0000
  C   C153      1.0  0.34802  0.16743  0.33440  1.0000
  C   C154      1.0  0.33692  0.17822  0.33436  1.0000
  C   C155      1.0  0.31507  0.16727  0.33428  1.0000
  C   C156      1.0  0.23829  0.07982  0.33387  1.0000
  C   C157      1.0  0.24896  0.06845  0.33387  1.0000
  C   C158      1.0  0.23813  0.04660  0.33384  1.0000
  C   C159      1.0  0.21624  0.03543  0.33380  1.0000
  C   C160      1.0  0.20538  0.04647  0.33379  1.0000
  C   C161      1.0  0.21627  0.06833  0.33382  1.0000
  C   C162      1.0  0.23829  0.14531  0.33386  1.0000
  C   C163      1.0  0.21627  0.13477  0.33381  1.0000
  C   C164      1.0  0.20537  0.14574  0.33378  1.0000
  C   C165      1.0  0.21623  0.16764  0.33379  1.0000
  C   C166      1.0  0.23813  0.17837  0.33383  1.0000
  C   C167      1.0  0.24896  0.16734  0.33386  1.0000
  H   H87       1.0  0.24635  0.03892  0.33386  1.0000
  H   H88       1.0  0.26483  0.07594  0.33390  1.0000
  H   H89       1.0  0.18947  0.03869  0.33376  1.0000
  H   H90       1.0  0.20779  0.07573  0.33382  1.0000
  H   H91       1.0  0.20779  0.11890  0.33381  1.0000
  H   H92       1.0  0.18947  0.13762  0.33376  1.0000
  H   H93       1.0  0.26483  0.17573  0.33389  1.0000
  H   H94       1.0  0.24635  0.19427  0.33384  1.0000
  H   H95       1.0  0.30762  0.17570  0.33424  1.0000
  H   H96       1.0  0.34465  0.19413  0.33438  1.0000
  H   H97       1.0  0.34465  0.13736  0.33438  1.0000
  H   H98       1.0  0.30762  0.11876  0.33425  1.0000
  C   C168      1.0  0.88559  0.13416  0.33392  1.0000
  N   N16       1.0  0.87454  0.14422  0.33404  1.0000
  C   C169      1.0  0.85343  0.13415  0.33411  1.0000
  N   N17       1.0  0.84337  0.11304  0.33404  1.0000
  C   C170      1.0  0.85342  0.10199  0.33392  1.0000
  N   N18       1.0  0.87455  0.11304  0.33386  1.0000
  C   C171      1.0  0.84235  0.14524  0.33423  1.0000
  C   C172      1.0  0.85295  0.16726  0.33428  1.0000
  C   C173      1.0  0.84206  0.17822  0.33436  1.0000
  C   C174      1.0  0.82016  0.16742  0.33440  1.0000
  C   C175      1.0  0.80936  0.14552  0.33436  1.0000
  C   C176      1.0  0.82032  0.13463  0.33428  1.0000
  C   C177      1.0  0.90777  0.14530  0.33387  1.0000
  C   C178      1.0  0.91913  0.16734  0.33387  1.0000
  C   C179      1.0  0.94099  0.17836  0.33384  1.0000
  C   C180      1.0  0.95216  0.16764  0.33380  1.0000
  C   C181      1.0  0.94112  0.14574  0.33379  1.0000
  C   C182      1.0  0.91926  0.13477  0.33382  1.0000
  C   C183      1.0  0.84228  0.07982  0.33386  1.0000
  C   C184      1.0  0.85281  0.06833  0.33381  1.0000
  C   C185      1.0  0.84185  0.04647  0.33378  1.0000
  C   C186      1.0  0.81995  0.03543  0.33379  1.0000
  C   C187      1.0  0.80922  0.04660  0.33383  1.0000
  C   C188      1.0  0.82025  0.06845  0.33386  1.0000
  H   H99       1.0  0.94867  0.19426  0.33386  1.0000
  H   H100      1.0  0.91164  0.17573  0.33390  1.0000
  H   H101      1.0  0.94890  0.13762  0.33376  1.0000
  H   H102      1.0  0.91186  0.11890  0.33382  1.0000
  H   H103      1.0  0.86869  0.07573  0.33381  1.0000
  H   H104      1.0  0.84997  0.03869  0.33376  1.0000
  H   H105      1.0  0.81186  0.07594  0.33389  1.0000
  H   H106      1.0  0.79332  0.03892  0.33384  1.0000
  H   H107      1.0  0.81189  0.11875  0.33424  1.0000
  H   H108      1.0  0.79346  0.13735  0.33438  1.0000
  H   H109      1.0  0.85022  0.19412  0.33438  1.0000
  H   H110      1.0  0.86883  0.17570  0.33425  1.0000
  C   C189      1.0  0.24921  0.52991  0.33407  1.0000
  N   N19       1.0  0.23908  0.50880  0.33417  1.0000
  C   C190      1.0  0.24928  0.49781  0.33422  1.0000
  N   N20       1.0  0.27047  0.50879  0.33416  1.0000
  C   C191      1.0  0.28146  0.52990  0.33406  1.0000
  N   N21       1.0  0.27023  0.53971  0.33402  1.0000
  C   C192      1.0  0.23819  0.47563  0.33432  1.0000
  C   C193      1.0  0.21616  0.46420  0.33435  1.0000
  C   C194      1.0  0.20520  0.44235  0.33440  1.0000
  C   C195      1.0  0.21600  0.43125  0.33442  1.0000
  C   C196      1.0  0.23789  0.44235  0.33440  1.0000
  C   C197      1.0  0.24879  0.46420  0.33435  1.0000
  C   C198      1.0  0.23899  0.54184  0.33400  1.0000
  C   C199      1.0  0.21703  0.53251  0.33394  1.0000
  C   C200      1.0  0.20731  0.54467  0.33384  1.0000
  C   C201      1.0  0.21938  0.56655  0.33382  1.0000
  C   C202      1.0  0.24122  0.57598  0.33387  1.0000
  C   C203      1.0  0.25080  0.56385  0.33396  1.0000
  C   C204      1.0  0.30361  0.54183  0.33398  1.0000
  C   C205      1.0  0.31381  0.56384  0.33389  1.0000
  C   C206      1.0  0.33553  0.57597  0.33377  1.0000
  C   C207      1.0  0.34792  0.56653  0.33376  1.0000
  C   C208      1.0  0.33810  0.54465  0.33383  1.0000
  C   C209      1.0  0.31622  0.53249  0.33395  1.0000
  H   H111      1.0  0.19145  0.53750  0.33378  1.0000
  H   H112      1.0  0.20784  0.51669  0.33394  1.0000
  H   H113      1.0  0.25039  0.59184  0.33383  1.0000
  H   H114      1.0  0.26668  0.57153  0.33400  1.0000
  H   H115      1.0  0.30561  0.57152  0.33389  1.0000
  H   H116      1.0  0.34222  0.59183  0.33368  1.0000
  H   H117      1.0  0.30959  0.51667  0.33400  1.0000
  H   H118      1.0  0.34680  0.53748  0.33379  1.0000
  H   H119      1.0  0.26466  0.47164  0.33432  1.0000
  H   H120      1.0  0.24606  0.43461  0.33441  1.0000
  H   H121      1.0  0.18930  0.43462  0.33441  1.0000
  H   H122      1.0  0.20772  0.47164  0.33432  1.0000
  C   C210      1.0  0.45769  0.70612  0.33401  1.0000
  N   N22       1.0  0.47880  0.71710  0.33412  1.0000
  C   C211      1.0  0.48979  0.73830  0.33417  1.0000
  N   N23       1.0  0.47880  0.74850  0.33410  1.0000
  C   C212      1.0  0.45769  0.73837  0.33398  1.0000
  N   N24       1.0  0.44788  0.71735  0.33394  1.0000
  C   C213      1.0  0.51196  0.74938  0.33428  1.0000
  C   C214      1.0  0.52339  0.73878  0.33433  1.0000
  C   C215      1.0  0.54524  0.74968  0.33440  1.0000
  C   C216      1.0  0.55634  0.77158  0.33442  1.0000
  C   C217      1.0  0.54524  0.78237  0.33438  1.0000
  C   C218      1.0  0.52339  0.77141  0.33431  1.0000
  C   C219      1.0  0.44576  0.68397  0.33396  1.0000
  C   C220      1.0  0.45510  0.67136  0.33391  1.0000
  C   C221      1.0  0.44294  0.64947  0.33381  1.0000
  C   C222      1.0  0.42106  0.63965  0.33378  1.0000
  C   C223      1.0  0.41162  0.65205  0.33380  1.0000
  C   C224      1.0  0.42375  0.67376  0.33390  1.0000
  C   C225      1.0  0.44576  0.74860  0.33390  1.0000
  C   C226      1.0  0.42375  0.73679  0.33380  1.0000
  C   C227      1.0  0.41162  0.74638  0.33376  1.0000
  C   C228      1.0  0.42107  0.76822  0.33378  1.0000
  C   C229      1.0  0.44294  0.78028  0.33392  1.0000
  C   C230      1.0  0.45510  0.77055  0.33396  1.0000
  H   H123      1.0  0.45011  0.64078  0.33375  1.0000
  H   H124      1.0  0.47092  0.67799  0.33392  1.0000
  H   H125      1.0  0.39576  0.64536  0.33374  1.0000
  H   H126      1.0  0.41607  0.68197  0.33392  1.0000
  H   H127      1.0  0.41607  0.72091  0.33378  1.0000
  H   H128      1.0  0.39577  0.73721  0.33372  1.0000
  H   H129      1.0  0.47092  0.77974  0.33405  1.0000
  H   H130      1.0  0.45012  0.79614  0.33398  1.0000
  H   H131      1.0  0.51595  0.77985  0.33427  1.0000
  H   H132      1.0  0.55297  0.79827  0.33438  1.0000
  H   H133      1.0  0.55298  0.74151  0.33442  1.0000
  H   H134      1.0  0.51596  0.72291  0.33431  1.0000
  C   C231      1.0  0.28144  0.73837  0.33398  1.0000
  N   N25       1.0  0.27046  0.74850  0.33410  1.0000
  C   C232      1.0  0.24926  0.73830  0.33416  1.0000
  N   N26       1.0  0.23906  0.71711  0.33410  1.0000
  C   C233      1.0  0.24918  0.70612  0.33398  1.0000
  N   N27       1.0  0.27021  0.71735  0.33392  1.0000
  C   C234      1.0  0.23818  0.74939  0.33428  1.0000
  C   C235      1.0  0.24878  0.77142  0.33432  1.0000
  C   C236      1.0  0.23789  0.78238  0.33439  1.0000
  C   C237      1.0  0.21599  0.77159  0.33442  1.0000
  C   C238      1.0  0.20519  0.74969  0.33440  1.0000
  C   C239      1.0  0.21615  0.73879  0.33433  1.0000
  C   C240      1.0  0.30359  0.74860  0.33390  1.0000
  C   C241      1.0  0.31620  0.77055  0.33396  1.0000
  C   C242      1.0  0.33809  0.78027  0.33391  1.0000
  C   C243      1.0  0.34790  0.76821  0.33375  1.0000
  C   C244      1.0  0.33550  0.74637  0.33371  1.0000
  C   C245      1.0  0.31379  0.73679  0.33378  1.0000
  C   C246      1.0  0.23895  0.68397  0.33390  1.0000
  C   C247      1.0  0.25076  0.67376  0.33378  1.0000
  C   C248      1.0  0.24117  0.65205  0.33369  1.0000
  C   C249      1.0  0.21933  0.63966  0.33373  1.0000
  C   C250      1.0  0.20727  0.64948  0.33385  1.0000
  C   C251      1.0  0.21700  0.67137  0.33393  1.0000
  H   H135      1.0  0.34678  0.79614  0.33397  1.0000
  H   H136      1.0  0.30958  0.77974  0.33407  1.0000
  H   H137      1.0  0.34219  0.73720  0.33364  1.0000
  H   H138      1.0  0.30558  0.72090  0.33374  1.0000
  H   H139      1.0  0.26664  0.68196  0.33376  1.0000
  H   H140      1.0  0.25033  0.64536  0.33360  1.0000
  H   H141      1.0  0.20781  0.67800  0.33401  1.0000
  H   H142      1.0  0.19140  0.64079  0.33386  1.0000
  H   H143      1.0  0.20771  0.72292  0.33430  1.0000
  H   H144      1.0  0.18929  0.74152  0.33441  1.0000
  H   H145      1.0  0.24606  0.79828  0.33440  1.0000
  H   H146      1.0  0.26466  0.77986  0.33428  1.0000
  C   C252      1.0  0.74303  0.45305  0.33406  1.0000
  N   N28       1.0  0.75316  0.47416  0.33417  1.0000
  C   C253      1.0  0.74295  0.48515  0.33422  1.0000
  N   N29       1.0  0.72176  0.47416  0.33416  1.0000
  C   C254      1.0  0.71078  0.45305  0.33404  1.0000
  N   N30       1.0  0.72200  0.44325  0.33400  1.0000
  C   C255      1.0  0.75404  0.50733  0.33432  1.0000
  C   C256      1.0  0.77607  0.51875  0.33436  1.0000
  C   C257      1.0  0.78703  0.54061  0.33440  1.0000
  C   C258      1.0  0.77623  0.55170  0.33443  1.0000
  C   C259      1.0  0.75433  0.54061  0.33441  1.0000
  C   C260      1.0  0.74344  0.51875  0.33436  1.0000
  C   C261      1.0  0.75326  0.44113  0.33398  1.0000
  C   C262      1.0  0.77521  0.45047  0.33396  1.0000
  C   C263      1.0  0.78493  0.43831  0.33386  1.0000
  C   C264      1.0  0.77288  0.41643  0.33378  1.0000
  C   C265      1.0  0.75104  0.40699  0.33379  1.0000
  C   C266      1.0  0.74145  0.41911  0.33390  1.0000
  C   C267      1.0  0.68863  0.44113  0.33394  1.0000
  C   C268      1.0  0.67842  0.41911  0.33380  1.0000
  C   C269      1.0  0.65670  0.40699  0.33366  1.0000
  C   C270      1.0  0.64431  0.41644  0.33370  1.0000
  C   C271      1.0  0.65413  0.43831  0.33384  1.0000
  C   C272      1.0  0.67602  0.45047  0.33396  1.0000
  H   H147      1.0  0.80080  0.44548  0.33384  1.0000
  H   H148      1.0  0.78440  0.46629  0.33402  1.0000
  H   H149      1.0  0.74187  0.39114  0.33372  1.0000
  H   H150      1.0  0.72557  0.41144  0.33390  1.0000
  H   H151      1.0  0.68662  0.41144  0.33376  1.0000
  H   H152      1.0  0.65001  0.39114  0.33354  1.0000
  H   H153      1.0  0.68265  0.46629  0.33406  1.0000
  H   H154      1.0  0.64544  0.44549  0.33385  1.0000
  H   H155      1.0  0.72757  0.51132  0.33433  1.0000
  H   H156      1.0  0.74617  0.54834  0.33442  1.0000
  H   H157      1.0  0.80293  0.54834  0.33441  1.0000
  H   H158      1.0  0.78451  0.51132  0.33433  1.0000
  C   C273      1.0  0.53454  0.27681  0.33408  1.0000
  N   N31       1.0  0.51343  0.26583  0.33418  1.0000
  C   C274      1.0  0.50244  0.24463  0.33423  1.0000
  N   N32       1.0  0.51343  0.23443  0.33417  1.0000
  C   C275      1.0  0.53454  0.24455  0.33407  1.0000
  N   N33       1.0  0.54435  0.26558  0.33403  1.0000
  C   C276      1.0  0.48027  0.23355  0.33432  1.0000
  C   C277      1.0  0.46884  0.24415  0.33435  1.0000
  C   C278      1.0  0.44698  0.23326  0.33440  1.0000
  C   C279      1.0  0.43589  0.21136  0.33442  1.0000
  C   C280      1.0  0.44698  0.20056  0.33440  1.0000
  C   C281      1.0  0.46884  0.21152  0.33435  1.0000
  C   C282      1.0  0.54647  0.29896  0.33402  1.0000
  C   C283      1.0  0.53714  0.31158  0.33392  1.0000
  C   C284      1.0  0.54930  0.33346  0.33382  1.0000
  C   C285      1.0  0.57118  0.34327  0.33384  1.0000
  C   C286      1.0  0.58062  0.33088  0.33392  1.0000
  C   C287      1.0  0.56849  0.30916  0.33402  1.0000
  C   C288      1.0  0.54647  0.23433  0.33398  1.0000
  C   C289      1.0  0.56848  0.24614  0.33389  1.0000
  C   C290      1.0  0.58061  0.23655  0.33376  1.0000
  C   C291      1.0  0.57117  0.21471  0.33376  1.0000
  C   C292      1.0  0.54929  0.20266  0.33383  1.0000
  C   C293      1.0  0.53713  0.21238  0.33395  1.0000
  H   H159      1.0  0.54213  0.34216  0.33374  1.0000
  H   H160      1.0  0.52132  0.30495  0.33390  1.0000
  H   H161      1.0  0.59647  0.33756  0.33390  1.0000
  H   H162      1.0  0.57616  0.30095  0.33407  1.0000
  H   H163      1.0  0.57616  0.26202  0.33390  1.0000
  H   H164      1.0  0.59646  0.24572  0.33368  1.0000
  H   H165      1.0  0.52131  0.20319  0.33400  1.0000
  H   H166      1.0  0.54211  0.18679  0.33379  1.0000
  H   H167      1.0  0.47627  0.20308  0.33432  1.0000
  H   H168      1.0  0.43925  0.18466  0.33441  1.0000
  H   H169      1.0  0.43925  0.24143  0.33441  1.0000
  H   H170      1.0  0.47628  0.26002  0.33432  1.0000
  C   C294      1.0  0.71076  0.24454  0.33406  1.0000
  N   N34       1.0  0.72174  0.23442  0.33416  1.0000
  C   C295      1.0  0.74294  0.24462  0.33422  1.0000
  N   N35       1.0  0.75314  0.26582  0.33414  1.0000
  C   C296      1.0  0.74301  0.27680  0.33403  1.0000
  N   N36       1.0  0.72198  0.26557  0.33399  1.0000
  C   C297      1.0  0.75403  0.23354  0.33431  1.0000
  C   C298      1.0  0.74343  0.21151  0.33435  1.0000
  C   C299      1.0  0.75432  0.20055  0.33441  1.0000
  C   C300      1.0  0.77622  0.21135  0.33442  1.0000
  C   C301      1.0  0.78702  0.23325  0.33439  1.0000
  C   C302      1.0  0.77606  0.24414  0.33434  1.0000
  C   C303      1.0  0.68861  0.23432  0.33398  1.0000
  C   C304      1.0  0.67600  0.21237  0.33394  1.0000
  C   C305      1.0  0.65411  0.20264  0.33382  1.0000
  C   C306      1.0  0.64429  0.21470  0.33378  1.0000
  C   C307      1.0  0.65669  0.23654  0.33380  1.0000
  C   C308      1.0  0.67840  0.24613  0.33392  1.0000
  C   C309      1.0  0.75323  0.29895  0.33394  1.0000
  C   C310      1.0  0.74142  0.30915  0.33379  1.0000
  C   C311      1.0  0.75100  0.33086  0.33370  1.0000
  C   C312      1.0  0.77284  0.34326  0.33374  1.0000
  C   C313      1.0  0.78490  0.33345  0.33393  1.0000
  C   C314      1.0  0.77518  0.31156  0.33400  1.0000
  H   H171      1.0  0.64542  0.18677  0.33376  1.0000
  H   H172      1.0  0.68262  0.20318  0.33396  1.0000
  H   H173      1.0  0.65000  0.24570  0.33374  1.0000
  H   H174      1.0  0.68661  0.26201  0.33394  1.0000
  H   H175      1.0  0.72553  0.30094  0.33376  1.0000
  H   H176      1.0  0.74183  0.33755  0.33362  1.0000
  H   H177      1.0  0.78437  0.30494  0.33412  1.0000
  H   H178      1.0  0.80077  0.34215  0.33400  1.0000
  H   H179      1.0  0.78449  0.26002  0.33430  1.0000
  H   H180      1.0  0.80292  0.24142  0.33440  1.0000
  H   H181      1.0  0.74616  0.18465  0.33442  1.0000
  H   H182      1.0  0.72755  0.20307  0.33433  1.0000
  C   C315      1.0  0.19949  0.39824  0.41574  1.0000
  C   C316      1.0  0.18856  0.37639  0.41573  1.0000
  C   C317      1.0  0.18302  0.36530  0.33442  1.0000
  C   C318      1.0  0.20503  0.40932  0.33442  1.0000
  H   H183      1.0  0.18469  0.36864  0.47539  1.0000
  H   H184      1.0  0.20336  0.40598  0.47540  1.0000
  C   C319      1.0  0.58935  0.78808  0.41575  1.0000
  C   C320      1.0  0.61120  0.79901  0.41574  1.0000
  C   C321      1.0  0.62228  0.80455  0.33442  1.0000
  C   C322      1.0  0.57827  0.78254  0.33443  1.0000
  H   H185      1.0  0.61895  0.80288  0.47540  1.0000
  H   H186      1.0  0.58161  0.78421  0.47540  1.0000
  C   C323      1.0  0.19949  0.78809  0.41575  1.0000
  C   C324      1.0  0.18857  0.79902  0.41574  1.0000
  C   C325      1.0  0.18302  0.80456  0.33442  1.0000
  C   C326      1.0  0.20503  0.78255  0.33443  1.0000
  H   H187      1.0  0.18469  0.80289  0.47540  1.0000
  H   H188      1.0  0.20336  0.78422  0.47541  1.0000
  C   C327      1.0  0.79273  0.58471  0.41575  1.0000
  C   C328      1.0  0.80366  0.60657  0.41574  1.0000
  C   C329      1.0  0.80920  0.61765  0.33442  1.0000
  C   C330      1.0  0.78719  0.57363  0.33443  1.0000
  H   H189      1.0  0.80753  0.61431  0.47540  1.0000
  H   H190      1.0  0.78886  0.57697  0.47540  1.0000
  C   C331      1.0  0.40288  0.19486  0.41574  1.0000
  C   C332      1.0  0.38102  0.18393  0.41573  1.0000
  C   C333      1.0  0.36994  0.17839  0.33442  1.0000
  C   C334      1.0  0.41396  0.20040  0.33442  1.0000
  H   H191      1.0  0.37328  0.18006  0.47539  1.0000
  H   H192      1.0  0.41062  0.19873  0.47540  1.0000
  C   C335      1.0  0.79272  0.19485  0.41574  1.0000
  C   C336      1.0  0.80365  0.18392  0.41574  1.0000
  C   C337      1.0  0.80919  0.17838  0.33442  1.0000
  C   C338      1.0  0.78718  0.20039  0.33443  1.0000
  H   H193      1.0  0.80753  0.18005  0.47540  1.0000
  H   H194      1.0  0.78885  0.19872  0.47540  1.0000
  C   C339      1.0  0.18888  0.19517  0.41509  1.0000
  C   C340      1.0  0.19981  0.18424  0.41509  1.0000
  H   H195      1.0  0.18500  0.19903  0.47476  1.0000
  H   H196      1.0  0.20367  0.18036  0.47476  1.0000
  C   C341      1.0  0.79241  0.98054  0.41509  1.0000
  C   C342      1.0  0.80334  0.00240  0.41509  1.0000
  H   H197      1.0  0.78855  0.97280  0.47476  1.0000
  H   H198      1.0  0.80722  0.01014  0.47476  1.0000
  C   C343      1.0  0.98518  0.78778  0.41509  1.0000
  H   H199      1.0  0.97744  0.78392  0.47476  1.0000
  C   C344      1.0  0.80334  0.78778  0.41509  1.0000
  C   C345      1.0  0.79241  0.79870  0.41509  1.0000
  H   H200      1.0  0.80722  0.78392  0.47476  1.0000
  H   H201      1.0  0.78855  0.80259  0.47476  1.0000
  C   C346      1.0  0.19981  0.00240  0.41509  1.0000
  C   C347      1.0  0.18888  0.98054  0.41509  1.0000
  H   H202      1.0  0.20367  0.01014  0.47476  1.0000
  H   H203      1.0  0.18500  0.97280  0.47476  1.0000
  C   C348      1.0  0.98518  0.18424  0.41509  1.0000
  H   H204      1.0  0.97744  0.18036  0.47476  1.0000
  C   C349      1.0  0.20997  0.58897  0.41482  1.0000
  C   C350      1.0  0.20987  0.60785  0.41489  1.0000
  H   H205      1.0  0.21212  0.58350  0.47425  1.0000
  H   H206      1.0  0.21208  0.61552  0.47422  1.0000
  C   C351      1.0  0.39868  0.60784  0.41481  1.0000
  C   C352      1.0  0.37973  0.58893  0.41478  1.0000
  H   H207      1.0  0.40409  0.61551  0.47417  1.0000
  H   H208      1.0  0.37208  0.58349  0.47417  1.0000
  C   C353      1.0  0.37977  0.77771  0.41495  1.0000
  C   C354      1.0  0.39868  0.77769  0.41499  1.0000
  H   H209      1.0  0.37215  0.77562  0.47433  1.0000
  H   H210      1.0  0.40422  0.77564  0.47442  1.0000
  C   C355      1.0  0.78229  0.39404  0.41485  1.0000
  C   C356      1.0  0.78234  0.37513  0.41491  1.0000
  H   H211      1.0  0.78019  0.39955  0.47427  1.0000
  H   H212      1.0  0.78016  0.36749  0.47428  1.0000
  C   C357      1.0  0.59362  0.37511  0.41480  1.0000
  C   C358      1.0  0.61251  0.39407  0.41481  1.0000
  H   H213      1.0  0.58815  0.36749  0.47424  1.0000
  H   H214      1.0  0.62018  0.39954  0.47412  1.0000
  C   C359      1.0  0.61248  0.20527  0.41481  1.0000
  C   C360      1.0  0.59357  0.20531  0.41478  1.0000
  H   H215      1.0  0.62015  0.20752  0.47416  1.0000
  H   H216      1.0  0.58813  0.20752  0.47416  1.0000
