data_image0
_chemical_formula_structural       C2NCNO2C2NCNO2NCHNCHNCHNCHNCHNCHC2NCNO2C2NCNO2NCHNCHC2NCNO2C2NCNO2NCHNCHNCHNCHC2NCNO2C2NCNO2NCHNCHC2NCNO2C2NCNO2NCHNCHNCHNCHC2NCNO2C2NCNO2C6H3C6H3C6H3C6H3C6H3C6H3C6H3C6H3C6H3C6H3C6H3C6H3C6H3C6H3C6H3C6H3C6H3C6H3C6H3C6H3NCHNCHC2NCNO2C2NCNO2C2NCNO2C2NCNO2C2NCNO2C2NCNO2NCHNCHC2NCNO2C2NCNO2NCHNCHC2NCNO2C2NCNO2C2NCNO2C2NCNO2NCHNCHC2NCNO2C2NCNO2NCHNCHC2NCNO2C2NCNO2C2NCNO2C2NCNO2NCHNCHC2NCNO2C2NCNO2NCHNCHNCHNCHNCHNCHC2NCNO2C2NCNO2NCHNCHC2NCNO2C2NCNO2NCHNCHNCHNCHC2NCNO2C2NCNO2NCHNCHC2NCNO2C2NCNO2NCHNCHNCHNCHC2NCNO2C2NCNO2C6H3C6H3C6H3C6H3C6H3C6H3C6H3C6H3C6H3C6H3C6H3C6H3C6H3C6H3C6H3C6H3C6H3C6H3C6H3C6H3NCHNCHC2NCNO2C2NCNO2C2NCNO2C2NCNO2C2NCNO2C2NCNO2NCHNCHC2NCNO2C2NCNO2NCHNCHC2NCNO2C2NCNO2C2NCNO2C2NCNO2NCHNCHC2NCNO2C2NCNO2NCHNCHC2NCNO2C2NCNO2C2NCNO2C2NCNO2NCHNCH
_chemical_formula_sum              "C480 N180 O120 H180"
_cell_length_a       84.7492
_cell_length_b       44.6414
_cell_length_c       14.8747
_cell_angle_alpha    90
_cell_angle_beta     90
_cell_angle_gamma    90

_space_group_name_H-M_alt    "P 1"
_space_group_IT_number       1

loop_
  _space_group_symop_operation_xyz
  'x, y, z'

loop_
  _atom_site_type_symbol
  _atom_site_label
  _atom_site_symmetry_multiplicity
  _atom_site_fract_x
  _atom_site_fract_y
  _atom_site_fract_z
  _atom_site_occupancy
  C   C1        1.0  0.23810  0.13602  0.35099  1.0000
  C   C2        1.0  0.27063  0.12319  0.34148  1.0000
  N   N1        1.0  0.25989  0.11051  0.28479  1.0000
  C   C3        1.0  0.24407  0.11618  0.28496  1.0000
  N   N2        1.0  0.23426  0.10346  0.21875  1.0000
  O   O1        1.0  0.23496  0.07539  0.22219  1.0000
  O   O2        1.0  0.23862  0.11159  0.14184  1.0000
  C   C4        1.0  0.77041  0.37337  0.35169  1.0000
  C   C5        1.0  0.73790  0.38620  0.34155  1.0000
  N   N3        1.0  0.74866  0.39887  0.28501  1.0000
  C   C6        1.0  0.76448  0.39321  0.28553  1.0000
  N   N4        1.0  0.77434  0.40589  0.21943  1.0000
  O   O3        1.0  0.77363  0.43397  0.22271  1.0000
  O   O4        1.0  0.77002  0.39772  0.14249  1.0000
  N   N5        1.0  0.75972  0.14682  0.27600  1.0000
  C   C7        1.0  0.74392  0.14174  0.27875  1.0000
  H   H1        1.0  0.73684  0.15021  0.22934  1.0000
  N   N6        1.0  0.24827  0.36269  0.27590  1.0000
  C   C8        1.0  0.26408  0.36769  0.27842  1.0000
  H   H2        1.0  0.27111  0.35934  0.22859  1.0000
  N   N7        1.0  0.31173  0.48770  0.30105  1.0000
  C   C9        1.0  0.31244  0.01784  0.29446  1.0000
  H   H3        1.0  0.31853  0.02737  0.24248  1.0000
  N   N8        1.0  0.69648  0.02151  0.30102  1.0000
  C   C10       1.0  0.69588  0.49137  0.29395  1.0000
  H   H4        1.0  0.68978  0.48185  0.24197  1.0000
  N   N9        1.0  0.81222  0.23815  0.30277  1.0000
  C   C11       1.0  0.81312  0.26832  0.29954  1.0000
  H   H5        1.0  0.81988  0.27822  0.25101  1.0000
  N   N10       1.0  0.19599  0.27109  0.30297  1.0000
  C   C12       1.0  0.19515  0.24091  0.29948  1.0000
  H   H6        1.0  0.18845  0.23102  0.25068  1.0000
  C   C13       1.0  0.36226  0.14602  0.33418  1.0000
  C   C14       1.0  0.33006  0.13080  0.32742  1.0000
  N   N11       1.0  0.34087  0.11933  0.26905  1.0000
  C   C15       1.0  0.35650  0.12624  0.26746  1.0000
  N   N12       1.0  0.36646  0.11339  0.20213  1.0000
  O   O5        1.0  0.36612  0.08531  0.20763  1.0000
  O   O6        1.0  0.36194  0.12064  0.12476  1.0000
  C   C16       1.0  0.64628  0.36317  0.33284  1.0000
  C   C17       1.0  0.67849  0.37823  0.32620  1.0000
  N   N13       1.0  0.66773  0.38964  0.26745  1.0000
  C   C18       1.0  0.65209  0.38278  0.26581  1.0000
  N   N14       1.0  0.64216  0.39556  0.20020  1.0000
  O   O7        1.0  0.64253  0.42365  0.20526  1.0000
  O   O8        1.0  0.64669  0.38815  0.12299  1.0000
  N   N15       1.0  0.65270  0.13324  0.26427  1.0000
  C   C19       1.0  0.66821  0.12614  0.25598  1.0000
  H   H7        1.0  0.67197  0.11536  0.19927  1.0000
  N   N16       1.0  0.35537  0.37615  0.26313  1.0000
  C   C20       1.0  0.33986  0.38322  0.25481  1.0000
  H   H8        1.0  0.33613  0.39433  0.19859  1.0000
  C   C21       1.0  0.86215  0.39610  0.33170  1.0000
  C   C22       1.0  0.82993  0.38103  0.32679  1.0000
  N   N17       1.0  0.84061  0.36942  0.26792  1.0000
  C   C23       1.0  0.85625  0.37629  0.26543  1.0000
  N   N18       1.0  0.86611  0.36334  0.19974  1.0000
  O   O9        1.0  0.86574  0.33528  0.20542  1.0000
  O   O10       1.0  0.86149  0.37057  0.12254  1.0000
  C   C24       1.0  0.14638  0.11314  0.33044  1.0000
  C   C25       1.0  0.17864  0.12803  0.32546  1.0000
  N   N19       1.0  0.16797  0.13955  0.26633  1.0000
  C   C26       1.0  0.15232  0.13276  0.26380  1.0000
  N   N20       1.0  0.14250  0.14561  0.19779  1.0000
  O   O11       1.0  0.14290  0.17369  0.20290  1.0000
  O   O12       1.0  0.14712  0.13818  0.12077  1.0000
  N   N21       1.0  0.15266  0.38387  0.26663  1.0000
  C   C27       1.0  0.16817  0.37681  0.25817  1.0000
  H   H9        1.0  0.17198  0.36667  0.20049  1.0000
  N   N22       1.0  0.85538  0.12551  0.26542  1.0000
  C   C28       1.0  0.83987  0.13251  0.25695  1.0000
  H   H10       1.0  0.83608  0.14290  0.19963  1.0000
  N   N23       1.0  0.06621  0.17177  0.33029  1.0000
  C   C29       1.0  0.07427  0.14507  0.33170  1.0000
  H   H11       1.0  0.06865  0.12606  0.31100  1.0000
  N   N24       1.0  0.94238  0.33796  0.32902  1.0000
  C   C30       1.0  0.93430  0.36464  0.33094  1.0000
  H   H12       1.0  0.93983  0.38367  0.30971  1.0000
  C   C31       1.0  0.93539  0.20024  0.30577  1.0000
  C   C32       1.0  0.91722  0.14585  0.31163  1.0000
  N   N25       1.0  0.91175  0.17230  0.27916  1.0000
  C   C33       1.0  0.91963  0.19870  0.27236  1.0000
  N   N26       1.0  0.91199  0.22191  0.22479  1.0000
  O   O13       1.0  0.89895  0.22826  0.26037  1.0000
  O   O14       1.0  0.90947  0.21437  0.14471  1.0000
  C   C34       1.0  0.07249  0.30964  0.30702  1.0000
  C   C35       1.0  0.09071  0.36392  0.31286  1.0000
  N   N27       1.0  0.09607  0.33759  0.27889  1.0000
  C   C36       1.0  0.08813  0.31127  0.27192  1.0000
  N   N28       1.0  0.09556  0.28816  0.22279  1.0000
  O   O15       1.0  0.10872  0.28167  0.25654  1.0000
  O   O16       1.0  0.09779  0.29598  0.14267  1.0000
  N   N29       1.0  0.56616  0.42167  0.33136  1.0000
  C   C37       1.0  0.57421  0.39495  0.33323  1.0000
  H   H13       1.0  0.56861  0.37593  0.31247  1.0000
  N   N30       1.0  0.44245  0.08802  0.33006  1.0000
  C   C38       1.0  0.43438  0.11471  0.33246  1.0000
  H   H14       1.0  0.43991  0.13376  0.31128  1.0000
  C   C39       1.0  0.43535  0.45035  0.30535  1.0000
  C   C40       1.0  0.41718  0.39594  0.31042  1.0000
  N   N31       1.0  0.41171  0.42245  0.27831  1.0000
  C   C41       1.0  0.41959  0.44886  0.27194  1.0000
  N   N32       1.0  0.41196  0.47216  0.22472  1.0000
  O   O17       1.0  0.39893  0.47847  0.26042  1.0000
  O   O18       1.0  0.40943  0.46475  0.14453  1.0000
  C   C42       1.0  0.57252  0.05947  0.30666  1.0000
  C   C43       1.0  0.59076  0.11375  0.31160  1.0000
  N   N33       1.0  0.59611  0.08736  0.27801  1.0000
  C   C44       1.0  0.58816  0.06103  0.27149  1.0000
  N   N34       1.0  0.59558  0.03783  0.22271  1.0000
  O   O19       1.0  0.60874  0.03137  0.25655  1.0000
  O   O20       1.0  0.59781  0.04551  0.14246  1.0000
  N   N35       1.0  0.09467  0.02031  0.33545  1.0000
  C   C45       1.0  0.09329  0.48965  0.33555  1.0000
  H   H15       1.0  0.08466  0.48000  0.29745  1.0000
  N   N36       1.0  0.91368  0.48931  0.33456  1.0000
  C   C46       1.0  0.91496  0.01998  0.33407  1.0000
  H   H16       1.0  0.92358  0.02971  0.29604  1.0000
  N   N37       1.0  0.59462  0.27027  0.33579  1.0000
  C   C47       1.0  0.59328  0.23961  0.33478  1.0000
  H   H17       1.0  0.58463  0.23001  0.29664  1.0000
  N   N38       1.0  0.41373  0.23932  0.33500  1.0000
  C   C48       1.0  0.41505  0.26999  0.33379  1.0000
  H   H18       1.0  0.42357  0.27959  0.29479  1.0000
  C   C49       1.0  0.98742  0.25346  0.32578  1.0000
  C   C50       1.0  0.02109  0.25504  0.33289  1.0000
  N   N39       1.0  0.01298  0.23434  0.28422  1.0000
  C   C51       1.0  0.99689  0.23250  0.27768  1.0000
  N   N40       1.0  0.99034  0.21107  0.21892  1.0000
  O   O21       1.0  0.99451  0.18512  0.24138  1.0000
  O   O22       1.0  0.99487  0.21559  0.13969  1.0000
  C   C52       1.0  0.48742  0.00344  0.32583  1.0000
  C   C53       1.0  0.52109  0.00501  0.33288  1.0000
  N   N41       1.0  0.51298  0.98433  0.28412  1.0000
  C   C54       1.0  0.49690  0.98249  0.27760  1.0000
  N   N42       1.0  0.49034  0.96111  0.21874  1.0000
  O   O23       1.0  0.49451  0.93514  0.24106  1.0000
  O   O24       1.0  0.49487  0.96567  0.13953  1.0000
  C   C55       1.0  0.30259  0.06638  0.34981  1.0000
  C   C56       1.0  0.31622  0.08401  0.34183  1.0000
  C   C57       1.0  0.31538  0.11557  0.33614  1.0000
  C   C58       1.0  0.30026  0.12935  0.33968  1.0000
  C   C59       1.0  0.28627  0.11173  0.34378  1.0000
  C   C60       1.0  0.28774  0.08033  0.35036  1.0000
  H   H19       1.0  0.29939  0.15214  0.33438  1.0000
  H   H20       1.0  0.27782  0.06721  0.35487  1.0000
  H   H21       1.0  0.32699  0.07353  0.34289  1.0000
  C   C61       1.0  0.70584  0.44284  0.34882  1.0000
  C   C62       1.0  0.69225  0.42512  0.34062  1.0000
  C   C63       1.0  0.69314  0.39358  0.33497  1.0000
  C   C64       1.0  0.70829  0.37988  0.33902  1.0000
  C   C65       1.0  0.72224  0.39759  0.34325  1.0000
  C   C66       1.0  0.72072  0.42899  0.34967  1.0000
  H   H22       1.0  0.70919  0.35710  0.33371  1.0000
  H   H23       1.0  0.73061  0.44216  0.35439  1.0000
  H   H24       1.0  0.68145  0.43554  0.34153  1.0000
  C   C67       1.0  0.70569  0.06727  0.36071  1.0000
  C   C68       1.0  0.69208  0.08473  0.34790  1.0000
  C   C69       1.0  0.69308  0.11605  0.33631  1.0000
  C   C70       1.0  0.70818  0.12990  0.33756  1.0000
  C   C71       1.0  0.72211  0.11254  0.34930  1.0000
  C   C72       1.0  0.72053  0.08128  0.35952  1.0000
  H   H25       1.0  0.70903  0.15263  0.33013  1.0000
  H   H26       1.0  0.73045  0.06814  0.36247  1.0000
  H   H27       1.0  0.68125  0.07441  0.34849  1.0000
  C   C73       1.0  0.30242  0.44193  0.36019  1.0000
  C   C74       1.0  0.31601  0.42444  0.34706  1.0000
  C   C75       1.0  0.31498  0.39312  0.33532  1.0000
  C   C76       1.0  0.29987  0.37932  0.33680  1.0000
  C   C77       1.0  0.28597  0.39670  0.34887  1.0000
  C   C78       1.0  0.28757  0.42796  0.35920  1.0000
  H   H28       1.0  0.29900  0.35659  0.32926  1.0000
  H   H29       1.0  0.27767  0.44112  0.36252  1.0000
  H   H30       1.0  0.32685  0.43472  0.34759  1.0000
  C   C79       1.0  0.80265  0.31653  0.35527  1.0000
  C   C80       1.0  0.81619  0.33422  0.34420  1.0000
  C   C81       1.0  0.81529  0.36572  0.33733  1.0000
  C   C82       1.0  0.80017  0.37944  0.34270  1.0000
  C   C83       1.0  0.78619  0.36199  0.35285  1.0000
  C   C84       1.0  0.78783  0.33059  0.35982  1.0000
  H   H31       1.0  0.79935  0.40224  0.33801  1.0000
  H   H32       1.0  0.77795  0.31735  0.36378  1.0000
  H   H33       1.0  0.82698  0.32382  0.34359  1.0000
  C   C85       1.0  0.20578  0.19272  0.35447  1.0000
  C   C86       1.0  0.19227  0.17494  0.34320  1.0000
  C   C87       1.0  0.19323  0.14346  0.33613  1.0000
  C   C88       1.0  0.20837  0.12984  0.34160  1.0000
  C   C89       1.0  0.22231  0.14736  0.35196  1.0000
  C   C90       1.0  0.22062  0.17875  0.35908  1.0000
  H   H34       1.0  0.20923  0.10704  0.33689  1.0000
  H   H35       1.0  0.23047  0.19204  0.36326  1.0000
  H   H36       1.0  0.18145  0.18526  0.34256  1.0000
  C   C91       1.0  0.20604  0.31732  0.35377  1.0000
  C   C92       1.0  0.19225  0.33471  0.34708  1.0000
  C   C93       1.0  0.19306  0.36610  0.33681  1.0000
  C   C94       1.0  0.20810  0.38010  0.33438  1.0000
  C   C95       1.0  0.22213  0.36265  0.33638  1.0000
  C   C96       1.0  0.22082  0.33134  0.34551  1.0000
  H   H37       1.0  0.20884  0.40289  0.32817  1.0000
  H   H38       1.0  0.23084  0.31844  0.34736  1.0000
  H   H39       1.0  0.18147  0.32434  0.35161  1.0000
  C   C97       1.0  0.80209  0.19194  0.35328  1.0000
  C   C98       1.0  0.81585  0.17449  0.34632  1.0000
  C   C99       1.0  0.81500  0.14311  0.33584  1.0000
  C   C100      1.0  0.79994  0.12918  0.33358  1.0000
  C   C101      1.0  0.78593  0.14670  0.33594  1.0000
  C   C102      1.0  0.78729  0.17799  0.34517  1.0000
  H   H40       1.0  0.79916  0.10641  0.32719  1.0000
  H   H41       1.0  0.77729  0.19094  0.34720  1.0000
  H   H42       1.0  0.82665  0.18481  0.35076  1.0000
  C   C103      1.0  0.13005  0.10583  0.33947  1.0000
  C   C104      1.0  0.11809  0.12770  0.34327  1.0000
  C   C105      1.0  0.10169  0.12060  0.34799  1.0000
  C   C106      1.0  0.09770  0.08948  0.35070  1.0000
  C   C107      1.0  0.10949  0.06684  0.35986  1.0000
  C   C108      1.0  0.12543  0.07587  0.34860  1.0000
  H   H43       1.0  0.08613  0.08345  0.35770  1.0000
  H   H44       1.0  0.13406  0.06000  0.34175  1.0000
  H   H45       1.0  0.12164  0.14957  0.33963  1.0000
  C   C109      1.0  0.87847  0.40353  0.34059  1.0000
  C   C110      1.0  0.89048  0.38176  0.34462  1.0000
  C   C111      1.0  0.90687  0.38900  0.34874  1.0000
  C   C112      1.0  0.91080  0.42015  0.35059  1.0000
  C   C113      1.0  0.89897  0.44271  0.35995  1.0000
  C   C114      1.0  0.88304  0.43354  0.34913  1.0000
  H   H46       1.0  0.92236  0.42627  0.35750  1.0000
  H   H47       1.0  0.87437  0.44934  0.34216  1.0000
  H   H48       1.0  0.88697  0.35985  0.34145  1.0000
  C   C115      1.0  0.87822  0.10668  0.34181  1.0000
  C   C116      1.0  0.88980  0.12801  0.31930  1.0000
  C   C117      1.0  0.90629  0.12161  0.32177  1.0000
  C   C118      1.0  0.91065  0.09117  0.33830  1.0000
  C   C119      1.0  0.89935  0.06854  0.35884  1.0000
  C   C120      1.0  0.88327  0.07759  0.36290  1.0000
  H   H49       1.0  0.92231  0.08539  0.33752  1.0000
  H   H50       1.0  0.87460  0.06201  0.37359  1.0000
  H   H51       1.0  0.88592  0.14936  0.30744  1.0000
  C   C121      1.0  0.12983  0.40265  0.34329  1.0000
  C   C122      1.0  0.11818  0.38146  0.32058  1.0000
  C   C123      1.0  0.10171  0.38803  0.32322  1.0000
  C   C124      1.0  0.09744  0.41848  0.34006  1.0000
  C   C125      1.0  0.10881  0.44100  0.36052  1.0000
  C   C126      1.0  0.12486  0.43178  0.36456  1.0000
  H   H52       1.0  0.08579  0.42437  0.33923  1.0000
  H   H53       1.0  0.13358  0.44725  0.37537  1.0000
  H   H54       1.0  0.12200  0.36008  0.30859  1.0000
  C   C127      1.0  0.62998  0.35578  0.34238  1.0000
  C   C128      1.0  0.61801  0.37762  0.34634  1.0000
  C   C129      1.0  0.60161  0.37049  0.35043  1.0000
  C   C130      1.0  0.59763  0.33935  0.35252  1.0000
  C   C131      1.0  0.60943  0.31672  0.36170  1.0000
  C   C132      1.0  0.62537  0.32580  0.35094  1.0000
  H   H55       1.0  0.58605  0.33332  0.35911  1.0000
  H   H56       1.0  0.63402  0.30997  0.34385  1.0000
  H   H57       1.0  0.62155  0.39950  0.34294  1.0000
  C   C133      1.0  0.37856  0.15354  0.34361  1.0000
  C   C134      1.0  0.39058  0.13180  0.34769  1.0000
  C   C135      1.0  0.40697  0.13906  0.35117  1.0000
  C   C136      1.0  0.41087  0.17023  0.35272  1.0000
  C   C137      1.0  0.39904  0.19279  0.36184  1.0000
  C   C138      1.0  0.38311  0.18357  0.35164  1.0000
  H   H58       1.0  0.42245  0.17639  0.35869  1.0000
  H   H59       1.0  0.37443  0.19932  0.34446  1.0000
  H   H60       1.0  0.38708  0.10989  0.34461  1.0000
  C   C139      1.0  0.37817  0.35654  0.33859  1.0000
  C   C140      1.0  0.38976  0.37796  0.31689  1.0000
  C   C141      1.0  0.40626  0.37166  0.32001  1.0000
  C   C142      1.0  0.41065  0.34124  0.33668  1.0000
  C   C143      1.0  0.39936  0.31856  0.35677  1.0000
  C   C144      1.0  0.38326  0.32746  0.35959  1.0000
  H   H61       1.0  0.42232  0.33553  0.33660  1.0000
  H   H62       1.0  0.37461  0.31179  0.36960  1.0000
  H   H63       1.0  0.38586  0.39931  0.30510  1.0000
  C   C145      1.0  0.62989  0.15270  0.34009  1.0000
  C   C146      1.0  0.61824  0.13142  0.31823  1.0000
  C   C147      1.0  0.60175  0.13790  0.32140  1.0000
  C   C148      1.0  0.59745  0.16834  0.33834  1.0000
  C   C149      1.0  0.60881  0.19091  0.35841  1.0000
  C   C150      1.0  0.62489  0.18183  0.36118  1.0000
  H   H64       1.0  0.58580  0.17417  0.33820  1.0000
  H   H65       1.0  0.63359  0.19739  0.37151  1.0000
  H   H66       1.0  0.62206  0.11004  0.30624  1.0000
  C   C151      1.0  0.06341  0.22641  0.34023  1.0000
  C   C152      1.0  0.07107  0.25435  0.32685  1.0000
  C   C153      1.0  0.06352  0.28257  0.31806  1.0000
  C   C154      1.0  0.04684  0.28206  0.32685  1.0000
  C   C155      1.0  0.03809  0.25489  0.33289  1.0000
  C   C156      1.0  0.04666  0.22742  0.33650  1.0000
  H   H67       1.0  0.04083  0.30185  0.32119  1.0000
  H   H68       1.0  0.04052  0.20782  0.34359  1.0000
  H   H69       1.0  0.08289  0.25415  0.32358  1.0000
  C   C157      1.0  0.94511  0.28325  0.33849  1.0000
  C   C158      1.0  0.93720  0.25562  0.32409  1.0000
  C   C159      1.0  0.94450  0.22720  0.31551  1.0000
  C   C160      1.0  0.96118  0.22736  0.32344  1.0000
  C   C161      1.0  0.97030  0.25419  0.32672  1.0000
  C   C162      1.0  0.96185  0.28179  0.33389  1.0000
  H   H70       1.0  0.96685  0.20720  0.32356  1.0000
  H   H71       1.0  0.96809  0.30132  0.33966  1.0000
  H   H72       1.0  0.92540  0.25623  0.32068  1.0000
  C   C163      1.0  0.56339  0.47632  0.34078  1.0000
  C   C164      1.0  0.57107  0.00422  0.32714  1.0000
  C   C165      1.0  0.56354  0.03244  0.31795  1.0000
  C   C166      1.0  0.54686  0.03199  0.32682  1.0000
  C   C167      1.0  0.53809  0.50484  0.33293  1.0000
  C   C168      1.0  0.54664  0.47735  0.33687  1.0000
  H   H73       1.0  0.54085  0.05177  0.32074  1.0000
  H   H74       1.0  0.54048  0.45778  0.34413  1.0000
  H   H75       1.0  0.58289  0.00397  0.32393  1.0000
  C   C169      1.0  0.44514  0.03329  0.33888  1.0000
  C   C170      1.0  0.43721  0.50570  0.32422  1.0000
  C   C171      1.0  0.44449  0.47727  0.31533  1.0000
  C   C172      1.0  0.46117  0.47738  0.32319  1.0000
  C   C173      1.0  0.47030  0.00418  0.32676  1.0000
  C   C174      1.0  0.46188  0.03180  0.33425  1.0000
  H   H76       1.0  0.46683  0.45720  0.32312  1.0000
  H   H77       1.0  0.46814  0.05131  0.34019  1.0000
  H   H78       1.0  0.42540  0.50636  0.32088  1.0000
  N   N43       1.0  0.24893  0.14862  0.40773  1.0000
  C   C175      1.0  0.26468  0.14311  0.40640  1.0000
  H   H79       1.0  0.27183  0.15263  0.45380  1.0000
  N   N44       1.0  0.75956  0.36083  0.40838  1.0000
  C   C176      1.0  0.74381  0.36635  0.40677  1.0000
  H   H80       1.0  0.73663  0.35683  0.45401  1.0000
  C   C177      1.0  0.77034  0.13508  0.33537  1.0000
  C   C178      1.0  0.73781  0.12383  0.34844  1.0000
  N   N45       1.0  0.74844  0.11262  0.40854  1.0000
  C   C179      1.0  0.76429  0.11767  0.40683  1.0000
  N   N46       1.0  0.77410  0.10674  0.47592  1.0000
  O   O25       1.0  0.77307  0.07874  0.48076  1.0000
  O   O26       1.0  0.76993  0.11749  0.55025  1.0000
  C   C180      1.0  0.23770  0.37436  0.33570  1.0000
  C   C181      1.0  0.27027  0.38542  0.34831  1.0000
  N   N47       1.0  0.25969  0.39655  0.40882  1.0000
  C   C182      1.0  0.24383  0.39156  0.40739  1.0000
  N   N48       1.0  0.23407  0.40235  0.47691  1.0000
  O   O27       1.0  0.23514  0.43034  0.48233  1.0000
  O   O28       1.0  0.23828  0.39141  0.55091  1.0000
  C   C183      1.0  0.30343  0.47328  0.36617  1.0000
  C   C184      1.0  0.30368  0.03512  0.35598  1.0000
  N   N49       1.0  0.29549  0.02078  0.42145  1.0000
  C   C185      1.0  0.29505  0.49053  0.43030  1.0000
  N   N50       1.0  0.28670  0.47723  0.50196  1.0000
  O   O29       1.0  0.27250  0.48531  0.50103  1.0000
  O   O30       1.0  0.29260  0.48511  0.57568  1.0000
  C   C186      1.0  0.70473  0.03590  0.36633  1.0000
  C   C187      1.0  0.70469  0.47409  0.35524  1.0000
  N   N51       1.0  0.71282  0.48841  0.42095  1.0000
  C   C188      1.0  0.71316  0.01865  0.43025  1.0000
  N   N52       1.0  0.72148  0.03192  0.50205  1.0000
  O   O31       1.0  0.73572  0.02409  0.50070  1.0000
  O   O32       1.0  0.71567  0.02377  0.57571  1.0000
  C   C189      1.0  0.80304  0.22319  0.36263  1.0000
  C   C190      1.0  0.80370  0.28514  0.35910  1.0000
  N   N53       1.0  0.79463  0.27009  0.41914  1.0000
  C   C191      1.0  0.79391  0.23979  0.42514  1.0000
  N   N54       1.0  0.78440  0.22571  0.49107  1.0000
  O   O33       1.0  0.77407  0.24260  0.52450  1.0000
  O   O34       1.0  0.79306  0.21720  0.55460  1.0000
  C   C192      1.0  0.20514  0.28606  0.36295  1.0000
  C   C193      1.0  0.20465  0.22411  0.35862  1.0000
  N   N55       1.0  0.21371  0.23916  0.41877  1.0000
  C   C194      1.0  0.21434  0.26946  0.42516  1.0000
  N   N56       1.0  0.22384  0.28354  0.49113  1.0000
  O   O35       1.0  0.23420  0.26668  0.52442  1.0000
  O   O36       1.0  0.21519  0.29197  0.55474  1.0000
  N   N57       1.0  0.35147  0.15799  0.39217  1.0000
  C   C195      1.0  0.33576  0.15159  0.39094  1.0000
  H   H81       1.0  0.32864  0.15987  0.44052  1.0000
  N   N58       1.0  0.65703  0.35131  0.39128  1.0000
  C   C196      1.0  0.67275  0.35767  0.39021  1.0000
  H   H82       1.0  0.67985  0.34946  0.43995  1.0000
  C   C197      1.0  0.64633  0.14571  0.33943  1.0000
  C   C198      1.0  0.67858  0.13165  0.32845  1.0000
  N   N59       1.0  0.67209  0.14303  0.40468  1.0000
  C   C199      1.0  0.65663  0.15119  0.41293  1.0000
  N   N60       1.0  0.65086  0.16206  0.49564  1.0000
  O   O37       1.0  0.65296  0.14302  0.55666  1.0000
  O   O38       1.0  0.65801  0.18559  0.51740  1.0000
  C   C200      1.0  0.36171  0.36338  0.33790  1.0000
  C   C201      1.0  0.32946  0.37750  0.32706  1.0000
  N   N61       1.0  0.33593  0.36580  0.40294  1.0000
  C   C202      1.0  0.35139  0.35758  0.41106  1.0000
  N   N62       1.0  0.35712  0.34639  0.49346  1.0000
  O   O39       1.0  0.35498  0.36517  0.55517  1.0000
  O   O40       1.0  0.34997  0.32275  0.51421  1.0000
  N   N63       1.0  0.85147  0.40816  0.39014  1.0000
  C   C203      1.0  0.83575  0.40186  0.38980  1.0000
  H   H83       1.0  0.82873  0.41017  0.43980  1.0000
  N   N64       1.0  0.15702  0.10122  0.38938  1.0000
  C   C204      1.0  0.17274  0.10750  0.38910  1.0000
  H   H84       1.0  0.17974  0.09927  0.43931  1.0000
  C   C205      1.0  0.14625  0.39558  0.34271  1.0000
  C   C206      1.0  0.17849  0.38153  0.33141  1.0000
  N   N65       1.0  0.17194  0.39217  0.40847  1.0000
  C   C207      1.0  0.15647  0.40031  0.41697  1.0000
  N   N66       1.0  0.15062  0.41050  0.50024  1.0000
  O   O41       1.0  0.15265  0.39096  0.55987  1.0000
  O   O42       1.0  0.15776  0.43383  0.52398  1.0000
  C   C208      1.0  0.86179  0.11360  0.34124  1.0000
  C   C209      1.0  0.82954  0.12762  0.33008  1.0000
  N   N67       1.0  0.83608  0.11677  0.40690  1.0000
  C   C210      1.0  0.85155  0.10862  0.41529  1.0000
  N   N68       1.0  0.85739  0.09820  0.49833  1.0000
  O   O43       1.0  0.85533  0.11755  0.55849  1.0000
  O   O44       1.0  0.85026  0.07477  0.52137  1.0000
  C   C211      1.0  0.07238  0.19931  0.35164  1.0000
  C   C212      1.0  0.09064  0.14487  0.35107  1.0000
  N   N69       1.0  0.09615  0.17188  0.37872  1.0000
  C   C213      1.0  0.08829  0.19829  0.38298  1.0000
  N   N70       1.0  0.09606  0.22205  0.42745  1.0000
  O   O45       1.0  0.10906  0.22784  0.39058  1.0000
  O   O46       1.0  0.09869  0.21553  0.50824  1.0000
  C   C214      1.0  0.93626  0.31045  0.35105  1.0000
  C   C215      1.0  0.91798  0.36481  0.35165  1.0000
  N   N71       1.0  0.91256  0.33785  0.38025  1.0000
  C   C216      1.0  0.92047  0.31148  0.38412  1.0000
  N   N72       1.0  0.91287  0.28771  0.42960  1.0000
  O   O47       1.0  0.89974  0.28188  0.39431  1.0000
  O   O48       1.0  0.91052  0.29430  0.51061  1.0000
  N   N73       1.0  0.94143  0.17323  0.33291  1.0000
  C   C217      1.0  0.93343  0.14657  0.33480  1.0000
  H   H85       1.0  0.93896  0.12817  0.36045  1.0000
  N   N74       1.0  0.06653  0.33656  0.33558  1.0000
  C   C218      1.0  0.07455  0.36321  0.33717  1.0000
  H   H86       1.0  0.06915  0.38149  0.36447  1.0000
  C   C219      1.0  0.57232  0.44921  0.35266  1.0000
  C   C220      1.0  0.59055  0.39475  0.35317  1.0000
  N   N75       1.0  0.59605  0.42178  0.38078  1.0000
  C   C221      1.0  0.58819  0.44821  0.38453  1.0000
  N   N76       1.0  0.59594  0.47202  0.42888  1.0000
  O   O49       1.0  0.60897  0.47775  0.39222  1.0000
  O   O50       1.0  0.59851  0.46561  0.50980  1.0000
  C   C222      1.0  0.43633  0.06049  0.35194  1.0000
  C   C223      1.0  0.41808  0.11488  0.35361  1.0000
  N   N77       1.0  0.41268  0.08789  0.38211  1.0000
  C   C224      1.0  0.42057  0.06150  0.38546  1.0000
  N   N78       1.0  0.41299  0.03767  0.43077  1.0000
  O   O51       1.0  0.39984  0.03191  0.39565  1.0000
  O   O52       1.0  0.41069  0.04414  0.51191  1.0000
  N   N79       1.0  0.44139  0.42329  0.33219  1.0000
  C   C225      1.0  0.43338  0.39665  0.33375  1.0000
  H   H87       1.0  0.43892  0.37821  0.35914  1.0000
  N   N80       1.0  0.56658  0.08643  0.33488  1.0000
  C   C226      1.0  0.57461  0.11307  0.33609  1.0000
  H   H88       1.0  0.56920  0.13140  0.36311  1.0000
  C   C227      1.0  0.10665  0.03579  0.37623  1.0000
  C   C228      1.0  0.10563  0.47214  0.37272  1.0000
  N   N81       1.0  0.11641  0.48807  0.42019  1.0000
  C   C229      1.0  0.11736  0.01817  0.42752  1.0000
  N   N82       1.0  0.12880  0.03030  0.48648  1.0000
  O   O53       1.0  0.14240  0.02097  0.46738  1.0000
  O   O54       1.0  0.12588  0.02262  0.56597  1.0000
  C   C230      1.0  0.90175  0.47380  0.37576  1.0000
  C   C231      1.0  0.90262  0.03745  0.37129  1.0000
  N   N83       1.0  0.89191  0.02150  0.41923  1.0000
  C   C232      1.0  0.89103  0.49141  0.42702  1.0000
  N   N84       1.0  0.87966  0.47929  0.48641  1.0000
  O   O55       1.0  0.86603  0.48848  0.46746  1.0000
  O   O56       1.0  0.88261  0.48713  0.56572  1.0000
  C   C233      1.0  0.60659  0.28562  0.37719  1.0000
  C   C234      1.0  0.60560  0.22199  0.37156  1.0000
  N   N85       1.0  0.61637  0.23776  0.41961  1.0000
  C   C235      1.0  0.61730  0.26783  0.42793  1.0000
  N   N86       1.0  0.62870  0.27976  0.48745  1.0000
  O   O57       1.0  0.64232  0.27051  0.46824  1.0000
  O   O58       1.0  0.62576  0.27179  0.56664  1.0000
  C   C236      1.0  0.40182  0.22393  0.37683  1.0000
  C   C237      1.0  0.40267  0.28754  0.37033  1.0000
  N   N87       1.0  0.39198  0.27176  0.41888  1.0000
  C   C238      1.0  0.39112  0.24171  0.42768  1.0000
  N   N88       1.0  0.37978  0.22978  0.48760  1.0000
  O   O59       1.0  0.36613  0.23890  0.46858  1.0000
  O   O60       1.0  0.38277  0.23789  0.56662  1.0000
  N   N89       1.0  0.99562  0.27452  0.37326  1.0000
  C   C239      1.0  0.01166  0.27637  0.37821  1.0000
  H   H89       1.0  0.01662  0.29281  0.41668  1.0000
  N   N90       1.0  0.49564  0.02446  0.37338  1.0000
  C   C240      1.0  0.51167  0.02631  0.37834  1.0000
  H   H90       1.0  0.51663  0.04275  0.41681  1.0000
  C   C241      1.0  0.23810  0.63602  0.35099  1.0000
  C   C242      1.0  0.27063  0.62319  0.34148  1.0000
  N   N91       1.0  0.25989  0.61051  0.28479  1.0000
  C   C243      1.0  0.24407  0.61618  0.28496  1.0000
  N   N92       1.0  0.23426  0.60346  0.21875  1.0000
  O   O61       1.0  0.23496  0.57539  0.22219  1.0000
  O   O62       1.0  0.23862  0.61159  0.14184  1.0000
  C   C244      1.0  0.77041  0.87337  0.35169  1.0000
  C   C245      1.0  0.73790  0.88620  0.34155  1.0000
  N   N93       1.0  0.74866  0.89887  0.28501  1.0000
  C   C246      1.0  0.76448  0.89321  0.28553  1.0000
  N   N94       1.0  0.77434  0.90590  0.21943  1.0000
  O   O63       1.0  0.77363  0.93397  0.22271  1.0000
  O   O64       1.0  0.77002  0.89772  0.14249  1.0000
  N   N95       1.0  0.75972  0.64682  0.27600  1.0000
  C   C247      1.0  0.74392  0.64174  0.27875  1.0000
  H   H91       1.0  0.73684  0.65021  0.22934  1.0000
  N   N96       1.0  0.24827  0.86269  0.27590  1.0000
  C   C248      1.0  0.26408  0.86769  0.27842  1.0000
  H   H92       1.0  0.27111  0.85935  0.22859  1.0000
  N   N97       1.0  0.31173  0.98770  0.30105  1.0000
  C   C249      1.0  0.31244  0.51784  0.29446  1.0000
  H   H93       1.0  0.31853  0.52737  0.24248  1.0000
  N   N98       1.0  0.69648  0.52151  0.30102  1.0000
  C   C250      1.0  0.69588  0.99137  0.29395  1.0000
  H   H94       1.0  0.68978  0.98184  0.24197  1.0000
  N   N99       1.0  0.81222  0.73815  0.30277  1.0000
  C   C251      1.0  0.81312  0.76832  0.29954  1.0000
  H   H95       1.0  0.81988  0.77822  0.25101  1.0000
  N   N100      1.0  0.19599  0.77109  0.30297  1.0000
  C   C252      1.0  0.19515  0.74092  0.29948  1.0000
  H   H96       1.0  0.18845  0.73102  0.25068  1.0000
  C   C253      1.0  0.36226  0.64602  0.33418  1.0000
  C   C254      1.0  0.33006  0.63080  0.32742  1.0000
  N   N101      1.0  0.34087  0.61933  0.26905  1.0000
  C   C255      1.0  0.35650  0.62624  0.26746  1.0000
  N   N102      1.0  0.36646  0.61339  0.20213  1.0000
  O   O65       1.0  0.36612  0.58531  0.20763  1.0000
  O   O66       1.0  0.36194  0.62064  0.12476  1.0000
  C   C256      1.0  0.64628  0.86317  0.33284  1.0000
  C   C257      1.0  0.67849  0.87823  0.32620  1.0000
  N   N103      1.0  0.66773  0.88964  0.26745  1.0000
  C   C258      1.0  0.65209  0.88278  0.26581  1.0000
  N   N104      1.0  0.64216  0.89556  0.20020  1.0000
  O   O67       1.0  0.64253  0.92365  0.20526  1.0000
  O   O68       1.0  0.64669  0.88815  0.12299  1.0000
  N   N105      1.0  0.65270  0.63324  0.26427  1.0000
  C   C259      1.0  0.66821  0.62614  0.25598  1.0000
  H   H97       1.0  0.67197  0.61536  0.19927  1.0000
  N   N106      1.0  0.35537  0.87615  0.26313  1.0000
  C   C260      1.0  0.33986  0.88322  0.25481  1.0000
  H   H98       1.0  0.33613  0.89433  0.19859  1.0000
  C   C261      1.0  0.86215  0.89610  0.33170  1.0000
  C   C262      1.0  0.82993  0.88103  0.32679  1.0000
  N   N107      1.0  0.84061  0.86942  0.26792  1.0000
  C   C263      1.0  0.85625  0.87629  0.26543  1.0000
  N   N108      1.0  0.86611  0.86335  0.19974  1.0000
  O   O69       1.0  0.86574  0.83527  0.20542  1.0000
  O   O70       1.0  0.86149  0.87057  0.12254  1.0000
  C   C264      1.0  0.14638  0.61314  0.33044  1.0000
  C   C265      1.0  0.17864  0.62803  0.32546  1.0000
  N   N109      1.0  0.16797  0.63955  0.26633  1.0000
  C   C266      1.0  0.15232  0.63276  0.26380  1.0000
  N   N110      1.0  0.14250  0.64561  0.19779  1.0000
  O   O71       1.0  0.14290  0.67369  0.20290  1.0000
  O   O72       1.0  0.14712  0.63819  0.12077  1.0000
  N   N111      1.0  0.15266  0.88387  0.26663  1.0000
  C   C267      1.0  0.16817  0.87681  0.25817  1.0000
  H   H99       1.0  0.17198  0.86667  0.20049  1.0000
  N   N112      1.0  0.85538  0.62552  0.26542  1.0000
  C   C268      1.0  0.83987  0.63251  0.25695  1.0000
  H   H100      1.0  0.83608  0.64290  0.19963  1.0000
  N   N113      1.0  0.06621  0.67178  0.33029  1.0000
  C   C269      1.0  0.07427  0.64507  0.33170  1.0000
  H   H101      1.0  0.06865  0.62606  0.31100  1.0000
  N   N114      1.0  0.94238  0.83796  0.32902  1.0000
  C   C270      1.0  0.93430  0.86464  0.33094  1.0000
  H   H102      1.0  0.93983  0.88367  0.30971  1.0000
  C   C271      1.0  0.93539  0.70024  0.30577  1.0000
  C   C272      1.0  0.91722  0.64585  0.31163  1.0000
  N   N115      1.0  0.91175  0.67230  0.27916  1.0000
  C   C273      1.0  0.91963  0.69870  0.27236  1.0000
  N   N116      1.0  0.91199  0.72191  0.22479  1.0000
  O   O73       1.0  0.89895  0.72826  0.26037  1.0000
  O   O74       1.0  0.90947  0.71437  0.14471  1.0000
  C   C274      1.0  0.07249  0.80964  0.30702  1.0000
  C   C275      1.0  0.09071  0.86392  0.31286  1.0000
  N   N117      1.0  0.09607  0.83759  0.27889  1.0000
  C   C276      1.0  0.08813  0.81127  0.27192  1.0000
  N   N118      1.0  0.09556  0.78816  0.22279  1.0000
  O   O75       1.0  0.10872  0.78167  0.25654  1.0000
  O   O76       1.0  0.09779  0.79598  0.14267  1.0000
  N   N119      1.0  0.56616  0.92167  0.33136  1.0000
  C   C277      1.0  0.57421  0.89495  0.33323  1.0000
  H   H103      1.0  0.56861  0.87593  0.31247  1.0000
  N   N120      1.0  0.44245  0.58802  0.33006  1.0000
  C   C278      1.0  0.43438  0.61471  0.33246  1.0000
  H   H104      1.0  0.43991  0.63376  0.31128  1.0000
  C   C279      1.0  0.43535  0.95035  0.30535  1.0000
  C   C280      1.0  0.41718  0.89594  0.31042  1.0000
  N   N121      1.0  0.41171  0.92245  0.27831  1.0000
  C   C281      1.0  0.41959  0.94886  0.27194  1.0000
  N   N122      1.0  0.41196  0.97216  0.22472  1.0000
  O   O77       1.0  0.39893  0.97847  0.26042  1.0000
  O   O78       1.0  0.40943  0.96475  0.14453  1.0000
  C   C282      1.0  0.57252  0.55947  0.30666  1.0000
  C   C283      1.0  0.59076  0.61376  0.31160  1.0000
  N   N123      1.0  0.59611  0.58736  0.27801  1.0000
  C   C284      1.0  0.58816  0.56103  0.27149  1.0000
  N   N124      1.0  0.59558  0.53783  0.22271  1.0000
  O   O79       1.0  0.60874  0.53137  0.25655  1.0000
  O   O80       1.0  0.59781  0.54551  0.14246  1.0000
  N   N125      1.0  0.09467  0.52031  0.33545  1.0000
  C   C285      1.0  0.09329  0.98965  0.33555  1.0000
  H   H105      1.0  0.08466  0.97999  0.29745  1.0000
  N   N126      1.0  0.91368  0.98931  0.33456  1.0000
  C   C286      1.0  0.91496  0.51998  0.33407  1.0000
  H   H106      1.0  0.92358  0.52971  0.29604  1.0000
  N   N127      1.0  0.59462  0.77027  0.33579  1.0000
  C   C287      1.0  0.59328  0.73961  0.33478  1.0000
  H   H107      1.0  0.58463  0.73001  0.29664  1.0000
  N   N128      1.0  0.41373  0.73932  0.33500  1.0000
  C   C288      1.0  0.41505  0.76999  0.33379  1.0000
  H   H108      1.0  0.42357  0.77959  0.29479  1.0000
  C   C289      1.0  0.98742  0.75347  0.32578  1.0000
  C   C290      1.0  0.02109  0.75504  0.33289  1.0000
  N   N129      1.0  0.01298  0.73434  0.28422  1.0000
  C   C291      1.0  0.99689  0.73250  0.27768  1.0000
  N   N130      1.0  0.99034  0.71107  0.21892  1.0000
  O   O81       1.0  0.99451  0.68512  0.24138  1.0000
  O   O82       1.0  0.99487  0.71559  0.13969  1.0000
  C   C292      1.0  0.48742  0.50344  0.32583  1.0000
  C   C293      1.0  0.52109  0.50501  0.33288  1.0000
  N   N131      1.0  0.51298  0.48433  0.28412  1.0000
  C   C294      1.0  0.49690  0.48249  0.27760  1.0000
  N   N132      1.0  0.49034  0.46110  0.21874  1.0000
  O   O83       1.0  0.49451  0.43514  0.24106  1.0000
  O   O84       1.0  0.49487  0.46567  0.13953  1.0000
  C   C295      1.0  0.30259  0.56638  0.34981  1.0000
  C   C296      1.0  0.31622  0.58401  0.34183  1.0000
  C   C297      1.0  0.31538  0.61557  0.33614  1.0000
  C   C298      1.0  0.30026  0.62935  0.33968  1.0000
  C   C299      1.0  0.28627  0.61173  0.34378  1.0000
  C   C300      1.0  0.28774  0.58033  0.35036  1.0000
  H   H109      1.0  0.29939  0.65214  0.33438  1.0000
  H   H110      1.0  0.27782  0.56722  0.35487  1.0000
  H   H111      1.0  0.32699  0.57353  0.34289  1.0000
  C   C301      1.0  0.70584  0.94285  0.34882  1.0000
  C   C302      1.0  0.69225  0.92513  0.34062  1.0000
  C   C303      1.0  0.69314  0.89358  0.33497  1.0000
  C   C304      1.0  0.70829  0.87988  0.33902  1.0000
  C   C305      1.0  0.72224  0.89759  0.34325  1.0000
  C   C306      1.0  0.72072  0.92899  0.34967  1.0000
  H   H112      1.0  0.70919  0.85710  0.33371  1.0000
  H   H113      1.0  0.73061  0.94216  0.35439  1.0000
  H   H114      1.0  0.68145  0.93554  0.34153  1.0000
  C   C307      1.0  0.70569  0.56727  0.36071  1.0000
  C   C308      1.0  0.69208  0.58473  0.34790  1.0000
  C   C309      1.0  0.69308  0.61606  0.33631  1.0000
  C   C310      1.0  0.70818  0.62990  0.33756  1.0000
  C   C311      1.0  0.72211  0.61254  0.34930  1.0000
  C   C312      1.0  0.72053  0.58128  0.35952  1.0000
  H   H115      1.0  0.70903  0.65263  0.33013  1.0000
  H   H116      1.0  0.73045  0.56814  0.36247  1.0000
  H   H117      1.0  0.68125  0.57441  0.34849  1.0000
  C   C313      1.0  0.30242  0.94193  0.36019  1.0000
  C   C314      1.0  0.31601  0.92444  0.34706  1.0000
  C   C315      1.0  0.31498  0.89312  0.33532  1.0000
  C   C316      1.0  0.29987  0.87931  0.33680  1.0000
  C   C317      1.0  0.28597  0.89670  0.34887  1.0000
  C   C318      1.0  0.28757  0.92796  0.35920  1.0000
  H   H118      1.0  0.29900  0.85659  0.32926  1.0000
  H   H119      1.0  0.27767  0.94112  0.36252  1.0000
  H   H120      1.0  0.32685  0.93472  0.34759  1.0000
  C   C319      1.0  0.80265  0.81653  0.35527  1.0000
  C   C320      1.0  0.81619  0.83423  0.34420  1.0000
  C   C321      1.0  0.81529  0.86572  0.33733  1.0000
  C   C322      1.0  0.80017  0.87944  0.34270  1.0000
  C   C323      1.0  0.78619  0.86199  0.35285  1.0000
  C   C324      1.0  0.78783  0.83059  0.35982  1.0000
  H   H121      1.0  0.79935  0.90224  0.33801  1.0000
  H   H122      1.0  0.77795  0.81735  0.36378  1.0000
  H   H123      1.0  0.82698  0.82382  0.34359  1.0000
  C   C325      1.0  0.20578  0.69272  0.35447  1.0000
  C   C326      1.0  0.19227  0.67494  0.34320  1.0000
  C   C327      1.0  0.19323  0.64346  0.33613  1.0000
  C   C328      1.0  0.20837  0.62984  0.34160  1.0000
  C   C329      1.0  0.22231  0.64736  0.35196  1.0000
  C   C330      1.0  0.22062  0.67875  0.35908  1.0000
  H   H124      1.0  0.20923  0.60704  0.33689  1.0000
  H   H125      1.0  0.23047  0.69205  0.36326  1.0000
  H   H126      1.0  0.18145  0.68526  0.34256  1.0000
  C   C331      1.0  0.20604  0.81732  0.35377  1.0000
  C   C332      1.0  0.19225  0.83471  0.34708  1.0000
  C   C333      1.0  0.19306  0.86610  0.33681  1.0000
  C   C334      1.0  0.20810  0.88010  0.33438  1.0000
  C   C335      1.0  0.22213  0.86265  0.33638  1.0000
  C   C336      1.0  0.22082  0.83134  0.34551  1.0000
  H   H127      1.0  0.20884  0.90288  0.32817  1.0000
  H   H128      1.0  0.23084  0.81845  0.34736  1.0000
  H   H129      1.0  0.18147  0.82434  0.35161  1.0000
  C   C337      1.0  0.80209  0.69194  0.35328  1.0000
  C   C338      1.0  0.81585  0.67449  0.34632  1.0000
  C   C339      1.0  0.81500  0.64311  0.33584  1.0000
  C   C340      1.0  0.79994  0.62918  0.33358  1.0000
  C   C341      1.0  0.78593  0.64670  0.33594  1.0000
  C   C342      1.0  0.78729  0.67800  0.34517  1.0000
  H   H130      1.0  0.79916  0.60641  0.32719  1.0000
  H   H131      1.0  0.77729  0.69094  0.34720  1.0000
  H   H132      1.0  0.82665  0.68481  0.35076  1.0000
  C   C343      1.0  0.13005  0.60583  0.33947  1.0000
  C   C344      1.0  0.11809  0.62770  0.34327  1.0000
  C   C345      1.0  0.10169  0.62060  0.34799  1.0000
  C   C346      1.0  0.09770  0.58948  0.35070  1.0000
  C   C347      1.0  0.10949  0.56684  0.35986  1.0000
  C   C348      1.0  0.12543  0.57587  0.34860  1.0000
  H   H133      1.0  0.08613  0.58345  0.35770  1.0000
  H   H134      1.0  0.13406  0.56000  0.34175  1.0000
  H   H135      1.0  0.12164  0.64957  0.33963  1.0000
  C   C349      1.0  0.87847  0.90353  0.34059  1.0000
  C   C350      1.0  0.89048  0.88176  0.34462  1.0000
  C   C351      1.0  0.90687  0.88900  0.34874  1.0000
  C   C352      1.0  0.91080  0.92015  0.35059  1.0000
  C   C353      1.0  0.89897  0.94271  0.35995  1.0000
  C   C354      1.0  0.88304  0.93354  0.34913  1.0000
  H   H136      1.0  0.92236  0.92627  0.35750  1.0000
  H   H137      1.0  0.87437  0.94934  0.34216  1.0000
  H   H138      1.0  0.88697  0.85985  0.34145  1.0000
  C   C355      1.0  0.87822  0.60668  0.34181  1.0000
  C   C356      1.0  0.88980  0.62801  0.31930  1.0000
  C   C357      1.0  0.90629  0.62161  0.32177  1.0000
  C   C358      1.0  0.91065  0.59117  0.33830  1.0000
  C   C359      1.0  0.89935  0.56854  0.35884  1.0000
  C   C360      1.0  0.88327  0.57759  0.36290  1.0000
  H   H139      1.0  0.92231  0.58539  0.33752  1.0000
  H   H140      1.0  0.87460  0.56201  0.37359  1.0000
  H   H141      1.0  0.88592  0.64936  0.30744  1.0000
  C   C361      1.0  0.12983  0.90265  0.34329  1.0000
  C   C362      1.0  0.11818  0.88146  0.32058  1.0000
  C   C363      1.0  0.10171  0.88802  0.32322  1.0000
  C   C364      1.0  0.09744  0.91848  0.34006  1.0000
  C   C365      1.0  0.10881  0.94100  0.36052  1.0000
  C   C366      1.0  0.12486  0.93178  0.36456  1.0000
  H   H142      1.0  0.08579  0.92437  0.33923  1.0000
  H   H143      1.0  0.13358  0.94725  0.37537  1.0000
  H   H144      1.0  0.12200  0.86008  0.30859  1.0000
  C   C367      1.0  0.62998  0.85578  0.34238  1.0000
  C   C368      1.0  0.61801  0.87762  0.34634  1.0000
  C   C369      1.0  0.60161  0.87049  0.35043  1.0000
  C   C370      1.0  0.59763  0.83935  0.35252  1.0000
  C   C371      1.0  0.60943  0.81672  0.36170  1.0000
  C   C372      1.0  0.62537  0.82580  0.35094  1.0000
  H   H145      1.0  0.58605  0.83332  0.35911  1.0000
  H   H146      1.0  0.63402  0.80997  0.34385  1.0000
  H   H147      1.0  0.62155  0.89950  0.34294  1.0000
  C   C373      1.0  0.37856  0.65354  0.34361  1.0000
  C   C374      1.0  0.39058  0.63180  0.34769  1.0000
  C   C375      1.0  0.40697  0.63906  0.35117  1.0000
  C   C376      1.0  0.41087  0.67023  0.35272  1.0000
  C   C377      1.0  0.39904  0.69279  0.36184  1.0000
  C   C378      1.0  0.38311  0.68357  0.35164  1.0000
  H   H148      1.0  0.42245  0.67639  0.35869  1.0000
  H   H149      1.0  0.37443  0.69932  0.34446  1.0000
  H   H150      1.0  0.38708  0.60989  0.34461  1.0000
  C   C379      1.0  0.37817  0.85654  0.33859  1.0000
  C   C380      1.0  0.38976  0.87796  0.31689  1.0000
  C   C381      1.0  0.40626  0.87166  0.32001  1.0000
  C   C382      1.0  0.41065  0.84124  0.33668  1.0000
  C   C383      1.0  0.39936  0.81856  0.35677  1.0000
  C   C384      1.0  0.38326  0.82746  0.35959  1.0000
  H   H151      1.0  0.42232  0.83553  0.33660  1.0000
  H   H152      1.0  0.37461  0.81179  0.36960  1.0000
  H   H153      1.0  0.38586  0.89931  0.30510  1.0000
  C   C385      1.0  0.62989  0.65270  0.34009  1.0000
  C   C386      1.0  0.61824  0.63141  0.31823  1.0000
  C   C387      1.0  0.60175  0.63791  0.32140  1.0000
  C   C388      1.0  0.59745  0.66834  0.33834  1.0000
  C   C389      1.0  0.60881  0.69091  0.35841  1.0000
  C   C390      1.0  0.62489  0.68183  0.36118  1.0000
  H   H154      1.0  0.58580  0.67417  0.33820  1.0000
  H   H155      1.0  0.63359  0.69739  0.37151  1.0000
  H   H156      1.0  0.62206  0.61004  0.30624  1.0000
  C   C391      1.0  0.06341  0.72641  0.34023  1.0000
  C   C392      1.0  0.07107  0.75435  0.32685  1.0000
  C   C393      1.0  0.06352  0.78257  0.31806  1.0000
  C   C394      1.0  0.04684  0.78206  0.32685  1.0000
  C   C395      1.0  0.03809  0.75489  0.33289  1.0000
  C   C396      1.0  0.04666  0.72742  0.33650  1.0000
  H   H157      1.0  0.04083  0.80185  0.32119  1.0000
  H   H158      1.0  0.04052  0.70782  0.34359  1.0000
  H   H159      1.0  0.08289  0.75414  0.32358  1.0000
  C   C397      1.0  0.94511  0.78325  0.33849  1.0000
  C   C398      1.0  0.93720  0.75562  0.32409  1.0000
  C   C399      1.0  0.94450  0.72720  0.31551  1.0000
  C   C400      1.0  0.96118  0.72736  0.32344  1.0000
  C   C401      1.0  0.97030  0.75419  0.32672  1.0000
  C   C402      1.0  0.96185  0.78180  0.33389  1.0000
  H   H160      1.0  0.96685  0.70720  0.32356  1.0000
  H   H161      1.0  0.96809  0.80132  0.33966  1.0000
  H   H162      1.0  0.92540  0.75623  0.32068  1.0000
  C   C403      1.0  0.56339  0.97632  0.34078  1.0000
  C   C404      1.0  0.57107  0.50422  0.32714  1.0000
  C   C405      1.0  0.56354  0.53244  0.31795  1.0000
  C   C406      1.0  0.54686  0.53199  0.32682  1.0000
  C   C407      1.0  0.53809  0.00484  0.33293  1.0000
  C   C408      1.0  0.54664  0.97735  0.33687  1.0000
  H   H163      1.0  0.54085  0.55177  0.32074  1.0000
  H   H164      1.0  0.54048  0.95778  0.34413  1.0000
  H   H165      1.0  0.58289  0.50397  0.32393  1.0000
  C   C409      1.0  0.44514  0.53329  0.33888  1.0000
  C   C410      1.0  0.43721  0.00570  0.32422  1.0000
  C   C411      1.0  0.44449  0.97727  0.31533  1.0000
  C   C412      1.0  0.46117  0.97738  0.32319  1.0000
  C   C413      1.0  0.47030  0.50418  0.32676  1.0000
  C   C414      1.0  0.46188  0.53180  0.33425  1.0000
  H   H166      1.0  0.46683  0.95720  0.32312  1.0000
  H   H167      1.0  0.46814  0.55131  0.34019  1.0000
  H   H168      1.0  0.42540  0.00636  0.32088  1.0000
  N   N133      1.0  0.24893  0.64862  0.40773  1.0000
  C   C415      1.0  0.26468  0.64311  0.40640  1.0000
  H   H169      1.0  0.27183  0.65263  0.45380  1.0000
  N   N134      1.0  0.75956  0.86083  0.40838  1.0000
  C   C416      1.0  0.74381  0.86635  0.40677  1.0000
  H   H170      1.0  0.73663  0.85683  0.45401  1.0000
  C   C417      1.0  0.77034  0.63508  0.33537  1.0000
  C   C418      1.0  0.73781  0.62383  0.34844  1.0000
  N   N135      1.0  0.74844  0.61262  0.40854  1.0000
  C   C419      1.0  0.76429  0.61767  0.40683  1.0000
  N   N136      1.0  0.77410  0.60675  0.47592  1.0000
  O   O85       1.0  0.77307  0.57874  0.48076  1.0000
  O   O86       1.0  0.76993  0.61749  0.55025  1.0000
  C   C420      1.0  0.23770  0.87436  0.33570  1.0000
  C   C421      1.0  0.27027  0.88542  0.34831  1.0000
  N   N137      1.0  0.25969  0.89655  0.40882  1.0000
  C   C422      1.0  0.24383  0.89156  0.40739  1.0000
  N   N138      1.0  0.23407  0.90235  0.47691  1.0000
  O   O87       1.0  0.23514  0.93034  0.48233  1.0000
  O   O88       1.0  0.23828  0.89141  0.55091  1.0000
  C   C423      1.0  0.30343  0.97328  0.36617  1.0000
  C   C424      1.0  0.30368  0.53512  0.35598  1.0000
  N   N139      1.0  0.29549  0.52078  0.42145  1.0000
  C   C425      1.0  0.29505  0.99053  0.43030  1.0000
  N   N140      1.0  0.28670  0.97723  0.50196  1.0000
  O   O89       1.0  0.27250  0.98531  0.50103  1.0000
  O   O90       1.0  0.29260  0.98511  0.57568  1.0000
  C   C426      1.0  0.70473  0.53591  0.36633  1.0000
  C   C427      1.0  0.70469  0.97409  0.35524  1.0000
  N   N141      1.0  0.71282  0.98842  0.42095  1.0000
  C   C428      1.0  0.71316  0.51865  0.43025  1.0000
  N   N142      1.0  0.72148  0.53192  0.50205  1.0000
  O   O91       1.0  0.73572  0.52409  0.50070  1.0000
  O   O92       1.0  0.71567  0.52377  0.57571  1.0000
  C   C429      1.0  0.80304  0.72319  0.36263  1.0000
  C   C430      1.0  0.80370  0.78514  0.35910  1.0000
  N   N143      1.0  0.79463  0.77009  0.41914  1.0000
  C   C431      1.0  0.79391  0.73979  0.42514  1.0000
  N   N144      1.0  0.78440  0.72571  0.49107  1.0000
  O   O93       1.0  0.77407  0.74260  0.52450  1.0000
  O   O94       1.0  0.79306  0.71720  0.55460  1.0000
  C   C432      1.0  0.20514  0.78605  0.36295  1.0000
  C   C433      1.0  0.20465  0.72410  0.35862  1.0000
  N   N145      1.0  0.21371  0.73916  0.41877  1.0000
  C   C434      1.0  0.21434  0.76946  0.42516  1.0000
  N   N146      1.0  0.22384  0.78354  0.49113  1.0000
  O   O95       1.0  0.23420  0.76668  0.52442  1.0000
  O   O96       1.0  0.21519  0.79198  0.55474  1.0000
  N   N147      1.0  0.35147  0.65799  0.39217  1.0000
  C   C435      1.0  0.33576  0.65159  0.39094  1.0000
  H   H171      1.0  0.32864  0.65987  0.44052  1.0000
  N   N148      1.0  0.65703  0.85131  0.39128  1.0000
  C   C436      1.0  0.67275  0.85767  0.39021  1.0000
  H   H172      1.0  0.67985  0.84946  0.43995  1.0000
  C   C437      1.0  0.64633  0.64571  0.33943  1.0000
  C   C438      1.0  0.67858  0.63165  0.32845  1.0000
  N   N149      1.0  0.67209  0.64303  0.40468  1.0000
  C   C439      1.0  0.65663  0.65119  0.41293  1.0000
  N   N150      1.0  0.65086  0.66206  0.49564  1.0000
  O   O97       1.0  0.65296  0.64302  0.55666  1.0000
  O   O98       1.0  0.65801  0.68559  0.51740  1.0000
  C   C440      1.0  0.36171  0.86338  0.33790  1.0000
  C   C441      1.0  0.32946  0.87750  0.32706  1.0000
  N   N151      1.0  0.33593  0.86580  0.40294  1.0000
  C   C442      1.0  0.35139  0.85759  0.41106  1.0000
  N   N152      1.0  0.35712  0.84639  0.49346  1.0000
  O   O99       1.0  0.35498  0.86517  0.55517  1.0000
  O   O100      1.0  0.34997  0.82276  0.51421  1.0000
  N   N153      1.0  0.85147  0.90816  0.39014  1.0000
  C   C443      1.0  0.83575  0.90186  0.38980  1.0000
  H   H173      1.0  0.82873  0.91017  0.43980  1.0000
  N   N154      1.0  0.15702  0.60122  0.38938  1.0000
  C   C444      1.0  0.17274  0.60750  0.38910  1.0000
  H   H174      1.0  0.17974  0.59927  0.43931  1.0000
  C   C445      1.0  0.14625  0.89558  0.34271  1.0000
  C   C446      1.0  0.17849  0.88153  0.33141  1.0000
  N   N155      1.0  0.17194  0.89217  0.40847  1.0000
  C   C447      1.0  0.15647  0.90031  0.41697  1.0000
  N   N156      1.0  0.15062  0.91050  0.50024  1.0000
  O   O101      1.0  0.15265  0.89096  0.55987  1.0000
  O   O102      1.0  0.15776  0.93383  0.52398  1.0000
  C   C448      1.0  0.86179  0.61360  0.34124  1.0000
  C   C449      1.0  0.82954  0.62762  0.33008  1.0000
  N   N157      1.0  0.83608  0.61677  0.40690  1.0000
  C   C450      1.0  0.85155  0.60862  0.41529  1.0000
  N   N158      1.0  0.85739  0.59820  0.49833  1.0000
  O   O103      1.0  0.85533  0.61755  0.55849  1.0000
  O   O104      1.0  0.85026  0.57478  0.52137  1.0000
  C   C451      1.0  0.07238  0.69931  0.35164  1.0000
  C   C452      1.0  0.09064  0.64487  0.35107  1.0000
  N   N159      1.0  0.09615  0.67188  0.37871  1.0000
  C   C453      1.0  0.08829  0.69829  0.38298  1.0000
  N   N160      1.0  0.09606  0.72205  0.42745  1.0000
  O   O105      1.0  0.10906  0.72784  0.39058  1.0000
  O   O106      1.0  0.09869  0.71553  0.50824  1.0000
  C   C454      1.0  0.93626  0.81045  0.35105  1.0000
  C   C455      1.0  0.91798  0.86482  0.35165  1.0000
  N   N161      1.0  0.91256  0.83785  0.38025  1.0000
  C   C456      1.0  0.92047  0.81147  0.38412  1.0000
  N   N162      1.0  0.91287  0.78771  0.42960  1.0000
  O   O107      1.0  0.89974  0.78188  0.39431  1.0000
  O   O108      1.0  0.91052  0.79429  0.51061  1.0000
  N   N163      1.0  0.94143  0.67323  0.33291  1.0000
  C   C457      1.0  0.93343  0.64657  0.33480  1.0000
  H   H175      1.0  0.93896  0.62817  0.36045  1.0000
  N   N164      1.0  0.06653  0.83656  0.33558  1.0000
  C   C458      1.0  0.07455  0.86321  0.33717  1.0000
  H   H176      1.0  0.06915  0.88149  0.36447  1.0000
  C   C459      1.0  0.57232  0.94921  0.35266  1.0000
  C   C460      1.0  0.59055  0.89475  0.35317  1.0000
  N   N165      1.0  0.59605  0.92178  0.38078  1.0000
  C   C461      1.0  0.58819  0.94821  0.38453  1.0000
  N   N166      1.0  0.59594  0.97203  0.42888  1.0000
  O   O109      1.0  0.60897  0.97775  0.39222  1.0000
  O   O110      1.0  0.59851  0.96561  0.50980  1.0000
  C   C462      1.0  0.43633  0.56049  0.35194  1.0000
  C   C463      1.0  0.41808  0.61488  0.35361  1.0000
  N   N167      1.0  0.41268  0.58789  0.38211  1.0000
  C   C464      1.0  0.42057  0.56150  0.38546  1.0000
  N   N168      1.0  0.41299  0.53767  0.43077  1.0000
  O   O111      1.0  0.39984  0.53191  0.39565  1.0000
  O   O112      1.0  0.41069  0.54414  0.51191  1.0000
  N   N169      1.0  0.44139  0.92329  0.33219  1.0000
  C   C465      1.0  0.43338  0.89665  0.33375  1.0000
  H   H177      1.0  0.43892  0.87821  0.35914  1.0000
  N   N170      1.0  0.56658  0.58643  0.33488  1.0000
  C   C466      1.0  0.57461  0.61307  0.33609  1.0000
  H   H178      1.0  0.56920  0.63141  0.36311  1.0000
  C   C467      1.0  0.10665  0.53579  0.37623  1.0000
  C   C468      1.0  0.10563  0.97214  0.37272  1.0000
  N   N171      1.0  0.11641  0.98807  0.42019  1.0000
  C   C469      1.0  0.11736  0.51817  0.42752  1.0000
  N   N172      1.0  0.12880  0.53030  0.48648  1.0000
  O   O113      1.0  0.14240  0.52097  0.46738  1.0000
  O   O114      1.0  0.12588  0.52262  0.56597  1.0000
  C   C470      1.0  0.90175  0.97380  0.37576  1.0000
  C   C471      1.0  0.90262  0.53745  0.37129  1.0000
  N   N173      1.0  0.89191  0.52150  0.41923  1.0000
  C   C472      1.0  0.89103  0.99141  0.42702  1.0000
  N   N174      1.0  0.87966  0.97929  0.48641  1.0000
  O   O115      1.0  0.86603  0.98848  0.46746  1.0000
  O   O116      1.0  0.88261  0.98712  0.56572  1.0000
  C   C473      1.0  0.60659  0.78562  0.37719  1.0000
  C   C474      1.0  0.60560  0.72199  0.37156  1.0000
  N   N175      1.0  0.61637  0.73776  0.41961  1.0000
  C   C475      1.0  0.61730  0.76783  0.42793  1.0000
  N   N176      1.0  0.62870  0.77976  0.48745  1.0000
  O   O117      1.0  0.64232  0.77051  0.46824  1.0000
  O   O118      1.0  0.62576  0.77179  0.56664  1.0000
  C   C476      1.0  0.40182  0.72393  0.37683  1.0000
  C   C477      1.0  0.40267  0.78754  0.37033  1.0000
  N   N177      1.0  0.39198  0.77177  0.41888  1.0000
  C   C478      1.0  0.39112  0.74171  0.42768  1.0000
  N   N178      1.0  0.37978  0.72978  0.48760  1.0000
  O   O119      1.0  0.36613  0.73890  0.46858  1.0000
  O   O120      1.0  0.38277  0.73789  0.56662  1.0000
  N   N179      1.0  0.99562  0.77452  0.37326  1.0000
  C   C479      1.0  0.01166  0.77637  0.37821  1.0000
  H   H179      1.0  0.01662  0.79281  0.41668  1.0000
  N   N180      1.0  0.49564  0.52447  0.37338  1.0000
  C   C480      1.0  0.51167  0.52631  0.37834  1.0000
  H   H180      1.0  0.51663  0.54275  0.41681  1.0000
