data_image0
_chemical_formula_structural       C4HCH3C4HCH3C4HCH3C4HCH3C4HCH3C4HCH3C2H2C2H2C2H2C2H2C2H2C2H2C2H2C2H2C2H2C2H2C2H2C2H2C4HCH3C4HCH3C4HCH3C4HCH3C4HCH3C4HCH3C2H2C2H2C2H2C2H2C2H2C2H2C2H2C2H2C2H2C2H2C2H2C2H2CNCNCNCNCNCNCNCNCNCNCNCNCNCNCNCNCNCNCNCNCNCNCNCNCNCNCNCNCNCNCNCNCNCNCNCNCNCNCNCNCNCNCNCNCNCNCNCNCNCNCNCNCNCNCNCNCNCNCNCNCNCNCNCNCNCNCNCNCNCNCNCNC2H2C2H2C2H2C2H2C2H2C2H2C4HCH3C4HCH3C4HCH3C4HCH3C4HCH3C4HCH3C4HCH3C4HCH3C4HCH3C4HCH3C4HCH3C4HCH3C2H2C2H2C2H2C2H2C2H2C2H2C4HCH3C4HCH3C4HCH3C4HCH3C4HCH3C4HCH3C4HCH3C4HCH3C4HCH3C4HCH3C4HCH3C4HCH3
_chemical_formula_sum              "C324 H216 N72"
_cell_length_a       53.6961
_cell_length_b       53.6961
_cell_length_c       14.8351
_cell_angle_alpha    90
_cell_angle_beta     90
_cell_angle_gamma    120

_space_group_name_H-M_alt    "P 1"
_space_group_IT_number       1

loop_
  _space_group_symop_operation_xyz
  'x, y, z'

loop_
  _atom_site_type_symbol
  _atom_site_label
  _atom_site_symmetry_multiplicity
  _atom_site_fract_x
  _atom_site_fract_y
  _atom_site_fract_z
  _atom_site_occupancy
  C   C1        1.0  0.11808  0.39942  0.31060  1.0000
  C   C2        1.0  0.13488  0.41539  0.23627  1.0000
  C   C3        1.0  0.14786  0.44575  0.23272  1.0000
  C   C4        1.0  0.14424  0.46071  0.30647  1.0000
  H   H1        1.0  0.13841  0.40474  0.18502  1.0000
  C   C5        1.0  0.16567  0.46142  0.15288  1.0000
  H   H2        1.0  0.16465  0.44693  0.09949  1.0000
  H   H3        1.0  0.18816  0.47475  0.17231  1.0000
  H   H4        1.0  0.15805  0.47520  0.12473  1.0000
  C   C6        1.0  0.61452  0.72122  0.31110  1.0000
  C   C7        1.0  0.59855  0.72177  0.23634  1.0000
  C   C8        1.0  0.56818  0.70443  0.23294  1.0000
  C   C9        1.0  0.55326  0.68616  0.30730  1.0000
  H   H5        1.0  0.60920  0.73578  0.18471  1.0000
  C   C10       1.0  0.55249  0.70629  0.15271  1.0000
  H   H6        1.0  0.56697  0.71959  0.09906  1.0000
  H   H7        1.0  0.53917  0.71552  0.17152  1.0000
  H   H8        1.0  0.53872  0.68480  0.12522  1.0000
  C   C11       1.0  0.29238  0.89571  0.30985  1.0000
  C   C12       1.0  0.29096  0.87835  0.23638  1.0000
  C   C13       1.0  0.30823  0.86525  0.23255  1.0000
  C   C14       1.0  0.32732  0.86935  0.30528  1.0000
  H   H9        1.0  0.27638  0.87444  0.18608  1.0000
  C   C15       1.0  0.30549  0.84692  0.15348  1.0000
  H   H10       1.0  0.29179  0.84776  0.10057  1.0000
  H   H11       1.0  0.29628  0.82453  0.17407  1.0000
  H   H12       1.0  0.32669  0.85423  0.12424  1.0000
  C   C16       1.0  0.89892  0.61173  0.31147  1.0000
  C   C17       1.0  0.88269  0.59581  0.23619  1.0000
  C   C18       1.0  0.86971  0.56545  0.23271  1.0000
  C   C19       1.0  0.87277  0.55047  0.30743  1.0000
  H   H13       1.0  0.87954  0.60650  0.18421  1.0000
  C   C20       1.0  0.85245  0.54980  0.15201  1.0000
  H   H14       1.0  0.85377  0.56430  0.09822  1.0000
  H   H15       1.0  0.82984  0.53641  0.17012  1.0000
  H   H16       1.0  0.86030  0.53608  0.12497  1.0000
  C   C21       1.0  0.40221  0.28969  0.31058  1.0000
  C   C22       1.0  0.41819  0.28871  0.23649  1.0000
  C   C23       1.0  0.44855  0.30604  0.23296  1.0000
  C   C24       1.0  0.46352  0.32473  0.30650  1.0000
  H   H17       1.0  0.40754  0.27442  0.18549  1.0000
  C   C25       1.0  0.46421  0.30375  0.15331  1.0000
  H   H18       1.0  0.44971  0.29024  0.10001  1.0000
  H   H19       1.0  0.47747  0.29454  0.17304  1.0000
  H   H20       1.0  0.47803  0.32510  0.12493  1.0000
  C   C26       1.0  0.72424  0.11531  0.31004  1.0000
  C   C27       1.0  0.72544  0.13246  0.23622  1.0000
  C   C28       1.0  0.70813  0.14550  0.23248  1.0000
  C   C29       1.0  0.68925  0.14158  0.30564  1.0000
  H   H21       1.0  0.73985  0.13619  0.18550  1.0000
  C   C30       1.0  0.71062  0.16364  0.15313  1.0000
  H   H22       1.0  0.72424  0.16274  0.10004  1.0000
  H   H23       1.0  0.71980  0.18606  0.17331  1.0000
  H   H24       1.0  0.68934  0.15619  0.12431  1.0000
  C   C31       1.0  0.44832  0.12519  0.30767  1.0000
  C   C32       1.0  0.41811  0.11132  0.30112  1.0000
  H   H25       1.0  0.45971  0.12533  0.25208  1.0000
  H   H26       1.0  0.40844  0.10144  0.24187  1.0000
  C   C33       1.0  0.68786  0.56570  0.30760  1.0000
  C   C34       1.0  0.70418  0.59591  0.30108  1.0000
  H   H27       1.0  0.67659  0.55430  0.25205  1.0000
  H   H28       1.0  0.70391  0.60558  0.24189  1.0000
  C   C35       1.0  0.88872  0.32590  0.30787  1.0000
  C   C36       1.0  0.90249  0.30947  0.30094  1.0000
  H   H29       1.0  0.88850  0.33711  0.25229  1.0000
  H   H30       1.0  0.91237  0.30974  0.24162  1.0000
  C   C37       1.0  0.56832  0.88598  0.30803  1.0000
  C   C38       1.0  0.59853  0.89987  0.30135  1.0000
  H   H31       1.0  0.55690  0.88582  0.25250  1.0000
  H   H32       1.0  0.60817  0.90974  0.24206  1.0000
  C   C39       1.0  0.32873  0.44549  0.30768  1.0000
  C   C40       1.0  0.31243  0.41527  0.30121  1.0000
  H   H33       1.0  0.33999  0.45688  0.25212  1.0000
  H   H34       1.0  0.31266  0.40562  0.24193  1.0000
  C   C41       1.0  0.12791  0.68531  0.30700  1.0000
  C   C42       1.0  0.11406  0.70167  0.30032  1.0000
  H   H35       1.0  0.12807  0.67407  0.25143  1.0000
  H   H36       1.0  0.10424  0.70148  0.24096  1.0000
  C   C43       1.0  0.26376  0.54423  0.31136  1.0000
  C   C44       1.0  0.29006  0.54441  0.31335  1.0000
  H   H37       1.0  0.26063  0.55557  0.26149  1.0000
  H   H38       1.0  0.30520  0.55587  0.26525  1.0000
  C   C45       1.0  0.46982  0.72241  0.31145  1.0000
  C   C46       1.0  0.46958  0.74850  0.31353  1.0000
  H   H39       1.0  0.45849  0.70794  0.26158  1.0000
  H   H40       1.0  0.45814  0.75218  0.26537  1.0000
  C   C47       1.0  0.29149  0.74993  0.31188  1.0000
  C   C48       1.0  0.26537  0.72363  0.31391  1.0000
  H   H41       1.0  0.30598  0.75301  0.26213  1.0000
  H   H42       1.0  0.26166  0.70851  0.26574  1.0000
  C   C49       1.0  0.75300  0.46709  0.31080  1.0000
  C   C50       1.0  0.72668  0.46687  0.31287  1.0000
  H   H43       1.0  0.75614  0.45576  0.26093  1.0000
  H   H44       1.0  0.71155  0.45543  0.26477  1.0000
  C   C51       1.0  0.54710  0.28881  0.31180  1.0000
  C   C52       1.0  0.54724  0.26266  0.31366  1.0000
  H   H45       1.0  0.55839  0.30324  0.26180  1.0000
  H   H46       1.0  0.55868  0.25899  0.26552  1.0000
  C   C53       1.0  0.72515  0.26105  0.31192  1.0000
  C   C54       1.0  0.75126  0.28736  0.31403  1.0000
  H   H47       1.0  0.71068  0.25795  0.26209  1.0000
  H   H48       1.0  0.75495  0.30250  0.26596  1.0000
  C   C55       1.0  0.17821  0.61833  0.32110  1.0000
  C   C56       1.0  0.19777  0.61542  0.26436  1.0000
  C   C57       1.0  0.19835  0.58941  0.25755  1.0000
  C   C58       1.0  0.17874  0.56521  0.31018  1.0000
  H   H49       1.0  0.21273  0.63306  0.22945  1.0000
  C   C59       1.0  0.21974  0.58847  0.19563  1.0000
  H   H50       1.0  0.22935  0.60673  0.14930  1.0000
  H   H51       1.0  0.20939  0.56897  0.15477  1.0000
  H   H52       1.0  0.23714  0.58880  0.23441  1.0000
  C   C60       1.0  0.39552  0.56279  0.32149  1.0000
  C   C61       1.0  0.39846  0.58529  0.26479  1.0000
  C   C62       1.0  0.42451  0.61185  0.25788  1.0000
  C   C63       1.0  0.44870  0.61639  0.31049  1.0000
  H   H53       1.0  0.38084  0.58261  0.22981  1.0000
  C   C64       1.0  0.42548  0.63417  0.19587  1.0000
  H   H54       1.0  0.40723  0.62553  0.14955  1.0000
  H   H55       1.0  0.44499  0.64329  0.15503  1.0000
  H   H56       1.0  0.42518  0.65127  0.23461  1.0000
  C   C65       1.0  0.45111  0.83552  0.32148  1.0000
  C   C66       1.0  0.42864  0.81596  0.26468  1.0000
  C   C67       1.0  0.40206  0.81539  0.25775  1.0000
  C   C68       1.0  0.39745  0.83498  0.31041  1.0000
  H   H57       1.0  0.43135  0.80102  0.22974  1.0000
  C   C69       1.0  0.37976  0.79402  0.19571  1.0000
  H   H58       1.0  0.38842  0.78440  0.14950  1.0000
  H   H59       1.0  0.37066  0.80441  0.15474  1.0000
  H   H60       1.0  0.36264  0.77664  0.23440  1.0000
  C   C70       1.0  0.83836  0.39275  0.32156  1.0000
  C   C71       1.0  0.81877  0.39566  0.26492  1.0000
  C   C72       1.0  0.81823  0.42169  0.25795  1.0000
  C   C73       1.0  0.83787  0.44589  0.31049  1.0000
  H   H61       1.0  0.80381  0.37801  0.23000  1.0000
  C   C74       1.0  0.79684  0.42261  0.19598  1.0000
  H   H62       1.0  0.78724  0.40435  0.14969  1.0000
  H   H63       1.0  0.80720  0.44211  0.15508  1.0000
  H   H64       1.0  0.77945  0.42230  0.23473  1.0000
  C   C75       1.0  0.62118  0.44838  0.32129  1.0000
  C   C76       1.0  0.61824  0.42590  0.26452  1.0000
  C   C77       1.0  0.59221  0.39933  0.25765  1.0000
  C   C78       1.0  0.56803  0.39475  0.31033  1.0000
  H   H65       1.0  0.63587  0.42860  0.22950  1.0000
  C   C79       1.0  0.59125  0.37702  0.19560  1.0000
  H   H66       1.0  0.60951  0.38566  0.14930  1.0000
  H   H67       1.0  0.57174  0.36791  0.15474  1.0000
  H   H68       1.0  0.59153  0.35991  0.23430  1.0000
  C   C80       1.0  0.56558  0.17556  0.32140  1.0000
  C   C81       1.0  0.58805  0.19511  0.26462  1.0000
  C   C82       1.0  0.61462  0.19565  0.25771  1.0000
  C   C83       1.0  0.61919  0.17603  0.31035  1.0000
  H   H69       1.0  0.58537  0.21008  0.22973  1.0000
  C   C84       1.0  0.63694  0.21703  0.19574  1.0000
  H   H70       1.0  0.62830  0.22666  0.14948  1.0000
  H   H71       1.0  0.64607  0.20666  0.15482  1.0000
  H   H72       1.0  0.65404  0.23442  0.23450  1.0000
  C   C85       1.0  0.02443  0.27978  0.29492  1.0000
  C   C86       1.0  0.99396  0.26438  0.29519  1.0000
  H   H73       1.0  0.03490  0.27513  0.24592  1.0000
  H   H74       1.0  0.98337  0.24905  0.24685  1.0000
  C   C87       1.0  0.73392  0.74719  0.29323  1.0000
  C   C88       1.0  0.74937  0.73219  0.29363  1.0000
  H   H75       1.0  0.73832  0.76208  0.24358  1.0000
  H   H76       1.0  0.76439  0.73660  0.24450  1.0000
  C   C89       1.0  0.26659  0.98951  0.29506  1.0000
  C   C90       1.0  0.28159  0.01997  0.29556  1.0000
  H   H77       1.0  0.25144  0.97903  0.24610  1.0000
  H   H78       1.0  0.27689  0.03058  0.24720  1.0000
  C   C91       1.0  0.99228  0.73105  0.29254  1.0000
  C   C92       1.0  0.02274  0.74650  0.29288  1.0000
  H   H79       1.0  0.98179  0.73535  0.24271  1.0000
  H   H80       1.0  0.03333  0.76143  0.24348  1.0000
  C   C93       1.0  0.28266  0.26381  0.29449  1.0000
  C   C94       1.0  0.26723  0.27885  0.29492  1.0000
  H   H81       1.0  0.27803  0.24871  0.24540  1.0000
  H   H82       1.0  0.25196  0.27419  0.24646  1.0000
  C   C95       1.0  0.75012  0.02159  0.29484  1.0000
  C   C96       1.0  0.73510  0.99113  0.29531  1.0000
  H   H83       1.0  0.76523  0.03206  0.24577  1.0000
  H   H84       1.0  0.73976  0.98052  0.24684  1.0000
  C   C97       1.0  0.15224  0.31697  0.26750  1.0000
  C   C98       1.0  0.17832  0.31645  0.27118  1.0000
  H   H85       1.0  0.14171  0.31287  0.20704  1.0000
  H   H86       1.0  0.18600  0.31234  0.21329  1.0000
  C   C99       1.0  0.69767  0.83834  0.26976  1.0000
  C   C100      1.0  0.69816  0.86492  0.27333  1.0000
  H   H87       1.0  0.70243  0.83218  0.20988  1.0000
  H   H88       1.0  0.70301  0.87706  0.21595  1.0000
  C   C101      1.0  0.17627  0.86141  0.26547  1.0000
  C   C102      1.0  0.14973  0.83528  0.26882  1.0000
  H   H89       1.0  0.18309  0.87163  0.20465  1.0000
  H   H90       1.0  0.13826  0.82736  0.21047  1.0000
  C   C103      1.0  0.86479  0.69458  0.26911  1.0000
  C   C104      1.0  0.83871  0.69510  0.27258  1.0000
  H   H91       1.0  0.87561  0.69913  0.20909  1.0000
  H   H92       1.0  0.83135  0.69975  0.21498  1.0000
  C   C105      1.0  0.31952  0.17297  0.26823  1.0000
  C   C106      1.0  0.31901  0.14638  0.27188  1.0000
  H   H93       1.0  0.31527  0.17935  0.20791  1.0000
  H   H94       1.0  0.31473  0.13452  0.21407  1.0000
  C   C107      1.0  0.84079  0.14938  0.26718  1.0000
  C   C108      1.0  0.86737  0.17546  0.27077  1.0000
  H   H95       1.0  0.83432  0.13883  0.20675  1.0000
  H   H96       1.0  0.87915  0.18310  0.21283  1.0000
  C   C109      1.0  0.16439  0.49018  0.32137  1.0000
  N   N1        1.0  0.15969  0.51279  0.31113  1.0000
  C   C110      1.0  0.18183  0.54049  0.32071  1.0000
  N   N2        1.0  0.20841  0.54486  0.34204  1.0000
  C   C111      1.0  0.21343  0.52275  0.35461  1.0000
  N   N3        1.0  0.19124  0.49578  0.34218  1.0000
  C   C112      1.0  0.52380  0.67695  0.32199  1.0000
  N   N4        1.0  0.50114  0.64967  0.31165  1.0000
  C   C113      1.0  0.47346  0.64419  0.32094  1.0000
  N   N5        1.0  0.46915  0.66645  0.34208  1.0000
  C   C114      1.0  0.49131  0.69356  0.35461  1.0000
  N   N6        1.0  0.51826  0.69826  0.34252  1.0000
  C   C115      1.0  0.33668  0.84923  0.32028  1.0000
  N   N7        1.0  0.36403  0.85398  0.31056  1.0000
  C   C116      1.0  0.36963  0.83189  0.32072  1.0000
  N   N8        1.0  0.34746  0.80532  0.34234  1.0000
  C   C117      1.0  0.32032  0.80029  0.35468  1.0000
  N   N9        1.0  0.31548  0.82241  0.34165  1.0000
  C   C118      1.0  0.85247  0.52102  0.32177  1.0000
  N   N10       1.0  0.85708  0.49835  0.31165  1.0000
  C   C119      1.0  0.83485  0.47067  0.32079  1.0000
  N   N11       1.0  0.80827  0.46640  0.34167  1.0000
  C   C120      1.0  0.80334  0.48857  0.35401  1.0000
  N   N12       1.0  0.82562  0.51551  0.34207  1.0000
  C   C121      1.0  0.49299  0.33406  0.32133  1.0000
  N   N13       1.0  0.51560  0.36138  0.31116  1.0000
  C   C122      1.0  0.54330  0.36694  0.32084  1.0000
  N   N14       1.0  0.54768  0.34474  0.34227  1.0000
  C   C123      1.0  0.52557  0.31762  0.35483  1.0000
  N   N15       1.0  0.49860  0.31283  0.34231  1.0000
  C   C124      1.0  0.67992  0.16172  0.32079  1.0000
  N   N16       1.0  0.65259  0.15700  0.31076  1.0000
  C   C125      1.0  0.64701  0.17911  0.32073  1.0000
  N   N17       1.0  0.66920  0.20568  0.34234  1.0000
  C   C126      1.0  0.69632  0.21070  0.35481  1.0000
  N   N18       1.0  0.70114  0.18855  0.34197  1.0000
  C   C127      1.0  0.49250  0.16225  0.37638  1.0000
  N   N19       1.0  0.51424  0.15712  0.35433  1.0000
  C   C128      1.0  0.54157  0.17935  0.33919  1.0000
  N   N20       1.0  0.54648  0.20681  0.34586  1.0000
  C   C129      1.0  0.52539  0.21259  0.36787  1.0000
  N   N21       1.0  0.49872  0.18995  0.38136  1.0000
  C   C130      1.0  0.68090  0.52150  0.37615  1.0000
  N   N22       1.0  0.65403  0.49974  0.35417  1.0000
  C   C131      1.0  0.64897  0.47242  0.33894  1.0000
  N   N23       1.0  0.67155  0.46755  0.34542  1.0000
  C   C132      1.0  0.69843  0.48868  0.36727  1.0000
  N   N24       1.0  0.70241  0.51532  0.38088  1.0000
  C   C133      1.0  0.85168  0.33302  0.37700  1.0000
  N   N25       1.0  0.85681  0.35987  0.35462  1.0000
  C   C134      1.0  0.83457  0.36496  0.33941  1.0000
  N   N26       1.0  0.80711  0.34242  0.34616  1.0000
  C   C135      1.0  0.80133  0.31554  0.36828  1.0000
  N   N27       1.0  0.82398  0.31154  0.38185  1.0000
  C   C136      1.0  0.52418  0.84892  0.37701  1.0000
  N   N28       1.0  0.50243  0.85401  0.35467  1.0000
  C   C137      1.0  0.47513  0.83175  0.33930  1.0000
  N   N29       1.0  0.47026  0.80431  0.34584  1.0000
  C   C138      1.0  0.49138  0.79856  0.36789  1.0000
  N   N30       1.0  0.51801  0.82124  0.38165  1.0000
  C   C139      1.0  0.33573  0.48969  0.37628  1.0000
  N   N31       1.0  0.36262  0.51144  0.35429  1.0000
  C   C140      1.0  0.36772  0.53878  0.33920  1.0000
  N   N32       1.0  0.34518  0.54369  0.34582  1.0000
  C   C141      1.0  0.31829  0.52259  0.36773  1.0000
  N   N33       1.0  0.31427  0.49592  0.38119  1.0000
  C   C142      1.0  0.16490  0.67812  0.37592  1.0000
  N   N34       1.0  0.15975  0.65124  0.35389  1.0000
  C   C143      1.0  0.18198  0.64613  0.33883  1.0000
  N   N35       1.0  0.20944  0.66865  0.34565  1.0000
  C   C144      1.0  0.21523  0.69554  0.36764  1.0000
  N   N36       1.0  0.19259  0.69957  0.38102  1.0000
  C   C145      1.0  0.11940  0.33195  0.33067  1.0000
  N   N37       1.0  0.09070  0.31275  0.34258  1.0000
  C   C146      1.0  0.07067  0.32150  0.34177  1.0000
  N   N38       1.0  0.08028  0.35006  0.33014  1.0000
  C   C147      1.0  0.10845  0.36964  0.31779  1.0000
  N   N39       1.0  0.12766  0.36019  0.31926  1.0000
  C   C148      1.0  0.68180  0.79013  0.33154  1.0000
  N   N40       1.0  0.70112  0.78074  0.34278  1.0000
  C   C149      1.0  0.69249  0.75199  0.34143  1.0000
  N   N41       1.0  0.66396  0.73294  0.32997  1.0000
  C   C150      1.0  0.64428  0.74144  0.31810  1.0000
  N   N42       1.0  0.65359  0.77005  0.32007  1.0000
  C   C151      1.0  0.22368  0.89455  0.33035  1.0000
  N   N43       1.0  0.23322  0.92326  0.34243  1.0000
  C   C152      1.0  0.26201  0.94323  0.34190  1.0000
  N   N44       1.0  0.28092  0.93358  0.33018  1.0000
  C   C153      1.0  0.27228  0.90540  0.31757  1.0000
  N   N45       1.0  0.24361  0.88625  0.31877  1.0000
  C   C154      1.0  0.89725  0.67900  0.33163  1.0000
  N   N46       1.0  0.92596  0.69834  0.34262  1.0000
  C   C155      1.0  0.94608  0.68971  0.34134  1.0000
  N   N47       1.0  0.93661  0.66117  0.33008  1.0000
  C   C156      1.0  0.90843  0.64148  0.31839  1.0000
  N   N48       1.0  0.88911  0.65078  0.32032  1.0000
  C   C157      1.0  0.33475  0.22090  0.33093  1.0000
  N   N49       1.0  0.31555  0.23040  0.34271  1.0000
  C   C158      1.0  0.32429  0.25917  0.34172  1.0000
  N   N50       1.0  0.35283  0.27813  0.33008  1.0000
  C   C159      1.0  0.37243  0.26954  0.31782  1.0000
  N   N51       1.0  0.36299  0.24089  0.31946  1.0000
  C   C160      1.0  0.79301  0.11658  0.33049  1.0000
  N   N52       1.0  0.78349  0.08788  0.34253  1.0000
  C   C161      1.0  0.75471  0.06786  0.34174  1.0000
  N   N53       1.0  0.73577  0.07747  0.32999  1.0000
  C   C162      1.0  0.74437  0.10565  0.31752  1.0000
  N   N54       1.0  0.77303  0.12484  0.31895  1.0000
  C   C163      1.0  0.33437  0.11522  0.34892  1.0000
  N   N55       1.0  0.31487  0.08629  0.34511  1.0000
  C   C164      1.0  0.32355  0.06621  0.34971  1.0000
  N   N56       1.0  0.35230  0.07595  0.35667  1.0000
  C   C165      1.0  0.37211  0.10431  0.35959  1.0000
  N   N57       1.0  0.36269  0.12349  0.35762  1.0000
  C   C166      1.0  0.79198  0.67953  0.34871  1.0000
  N   N58       1.0  0.78265  0.69909  0.34458  1.0000
  C   C167      1.0  0.75389  0.69049  0.34878  1.0000
  N   N59       1.0  0.73481  0.66177  0.35601  1.0000
  C   C168      1.0  0.74327  0.64189  0.35929  1.0000
  N   N60       1.0  0.77186  0.65124  0.35753  1.0000
  C   C169      1.0  0.89870  0.22186  0.34809  1.0000
  N   N61       1.0  0.92763  0.23130  0.34445  1.0000
  C   C170      1.0  0.94770  0.26007  0.34909  1.0000
  N   N62       1.0  0.93793  0.27905  0.35619  1.0000
  C   C171      1.0  0.90957  0.27049  0.35903  1.0000
  N   N63       1.0  0.89040  0.24188  0.35693  1.0000
  C   C172      1.0  0.68223  0.89586  0.34905  1.0000
  N   N64       1.0  0.70178  0.92477  0.34515  1.0000
  C   C173      1.0  0.69315  0.94490  0.34948  1.0000
  N   N65       1.0  0.66441  0.93522  0.35649  1.0000
  C   C174      1.0  0.64455  0.90688  0.35957  1.0000
  N   N66       1.0  0.65393  0.88767  0.35779  1.0000
  C   C175      1.0  0.22470  0.33156  0.34855  1.0000
  N   N67       1.0  0.23411  0.31205  0.34475  1.0000
  C   C176      1.0  0.26287  0.32072  0.34941  1.0000
  N   N68       1.0  0.28189  0.34946  0.35647  1.0000
  C   C177      1.0  0.27335  0.36929  0.35943  1.0000
  N   N69       1.0  0.24475  0.35987  0.35738  1.0000
  C   C178      1.0  0.11798  0.78931  0.34727  1.0000
  N   N70       1.0  0.08907  0.77991  0.34354  1.0000
  C   C179      1.0  0.06898  0.75116  0.34831  1.0000
  N   N71       1.0  0.07868  0.73213  0.35569  1.0000
  C   C180      1.0  0.10705  0.74067  0.35862  1.0000
  N   N72       1.0  0.12625  0.76927  0.35628  1.0000
  C   C181      1.0  0.12665  0.44455  0.37956  1.0000
  C   C182      1.0  0.11334  0.41431  0.38090  1.0000
  H   H97       1.0  0.12512  0.45477  0.43581  1.0000
  H   H98       1.0  0.10215  0.40349  0.43723  1.0000
  C   C183      1.0  0.56939  0.68505  0.38100  1.0000
  C   C184      1.0  0.59963  0.70190  0.38210  1.0000
  H   H99       1.0  0.55915  0.67347  0.43751  1.0000
  H   H100      1.0  0.61047  0.70179  0.43874  1.0000
  C   C185      1.0  0.32940  0.88754  0.37733  1.0000
  C   C186      1.0  0.31259  0.90099  0.37877  1.0000
  H   H101      1.0  0.34162  0.88949  0.43278  1.0000
  H   H102      1.0  0.31340  0.91259  0.43457  1.0000
  C   C187      1.0  0.88970  0.56657  0.38168  1.0000
  C   C188      1.0  0.90308  0.59682  0.38292  1.0000
  H   H103      1.0  0.89082  0.55631  0.43845  1.0000
  H   H104      1.0  0.91379  0.60761  0.43993  1.0000
  C   C189      1.0  0.44735  0.32630  0.37931  1.0000
  C   C190      1.0  0.41710  0.30944  0.38059  1.0000
  H   H105      1.0  0.45758  0.33823  0.43528  1.0000
  H   H106      1.0  0.40627  0.30994  0.43670  1.0000
  C   C191      1.0  0.68745  0.12367  0.37822  1.0000
  C   C192      1.0  0.70428  0.11025  0.37955  1.0000
  H   H107      1.0  0.67541  0.12189  0.43397  1.0000
  H   H108      1.0  0.70366  0.09884  0.43560  1.0000
  C   C193      1.0  0.40170  0.11392  0.37093  1.0000
  C   C194      1.0  0.41591  0.12861  0.45030  1.0000
  C   C195      1.0  0.44619  0.14212  0.45898  1.0000
  C   C196      1.0  0.46285  0.14140  0.38501  1.0000
  H   H109      1.0  0.40404  0.13032  0.50149  1.0000
  C   C197      1.0  0.45975  0.15697  0.54520  1.0000
  H   H110      1.0  0.44398  0.15207  0.59872  1.0000
  H   H111      1.0  0.47139  0.18018  0.53582  1.0000
  H   H112      1.0  0.47471  0.15017  0.56855  1.0000
  C   C198      1.0  0.72325  0.61231  0.37074  1.0000
  C   C199      1.0  0.72381  0.59809  0.45000  1.0000
  C   C200      1.0  0.70709  0.56781  0.45862  1.0000
  C   C201      1.0  0.68968  0.55115  0.38468  1.0000
  H   H113      1.0  0.73746  0.60996  0.50108  1.0000
  C   C202      1.0  0.70849  0.55427  0.54474  1.0000
  H   H114      1.0  0.71932  0.57003  0.59829  1.0000
  H   H115      1.0  0.72013  0.54272  0.53518  1.0000
  H   H116      1.0  0.68676  0.53922  0.56814  1.0000
  C   C203      1.0  0.89994  0.29045  0.37060  1.0000
  C   C204      1.0  0.88529  0.28994  0.45008  1.0000
  C   C205      1.0  0.87179  0.30671  0.45902  1.0000
  C   C206      1.0  0.87249  0.32415  0.38525  1.0000
  H   H117      1.0  0.88361  0.27634  0.50120  1.0000
  C   C207      1.0  0.85698  0.30538  0.54536  1.0000
  H   H118      1.0  0.86188  0.29445  0.59871  1.0000
  H   H119      1.0  0.83377  0.29385  0.53604  1.0000
  H   H120      1.0  0.86381  0.32712  0.56892  1.0000
  C   C208      1.0  0.61498  0.89731  0.37109  1.0000
  C   C209      1.0  0.60080  0.88260  0.45049  1.0000
  C   C210      1.0  0.57053  0.86906  0.45931  1.0000
  C   C211      1.0  0.55384  0.86977  0.38543  1.0000
  H   H121      1.0  0.61270  0.88089  0.50160  1.0000
  C   C212      1.0  0.55702  0.85420  0.54555  1.0000
  H   H122      1.0  0.57282  0.85909  0.59896  1.0000
  H   H123      1.0  0.54536  0.83100  0.53612  1.0000
  H   H124      1.0  0.54208  0.86100  0.56907  1.0000
  C   C213      1.0  0.29333  0.39887  0.37082  1.0000
  C   C214      1.0  0.29278  0.41310  0.45008  1.0000
  C   C215      1.0  0.30951  0.44338  0.45871  1.0000
  C   C216      1.0  0.32692  0.46003  0.38477  1.0000
  H   H125      1.0  0.27913  0.40123  0.50116  1.0000
  C   C217      1.0  0.30813  0.45692  0.54485  1.0000
  H   H126      1.0  0.29732  0.44115  0.59842  1.0000
  H   H127      1.0  0.29647  0.46846  0.53535  1.0000
  H   H128      1.0  0.32986  0.47197  0.56821  1.0000
  C   C218      1.0  0.11664  0.72068  0.37010  1.0000
  C   C219      1.0  0.13128  0.72114  0.44954  1.0000
  C   C220      1.0  0.14475  0.70434  0.45836  1.0000
  C   C221      1.0  0.14406  0.68695  0.38447  1.0000
  H   H129      1.0  0.13297  0.73471  0.50074  1.0000
  C   C222      1.0  0.15954  0.70561  0.54468  1.0000
  H   H130      1.0  0.15465  0.71650  0.59812  1.0000
  H   H131      1.0  0.18275  0.71712  0.53541  1.0000
  H   H132      1.0  0.15269  0.68384  0.56807  1.0000
  C   C223      1.0  0.29425  0.52669  0.37438  1.0000
  C   C224      1.0  0.27232  0.51064  0.43781  1.0000
  C   C225      1.0  0.24581  0.51023  0.43741  1.0000
  C   C226      1.0  0.24109  0.52653  0.37074  1.0000
  H   H133      1.0  0.27535  0.49818  0.48372  1.0000
  C   C227      1.0  0.22382  0.49268  0.50668  1.0000
  H   H134      1.0  0.23242  0.48497  0.55967  1.0000
  H   H135      1.0  0.20589  0.47389  0.47545  1.0000
  H   H136      1.0  0.21583  0.50558  0.53900  1.0000
  C   C228      1.0  0.48735  0.77044  0.37442  1.0000
  C   C229      1.0  0.50346  0.76460  0.43773  1.0000
  C   C230      1.0  0.50388  0.73850  0.43733  1.0000
  C   C231      1.0  0.48756  0.71746  0.37074  1.0000
  H   H137      1.0  0.51591  0.78009  0.48365  1.0000
  C   C232      1.0  0.52146  0.73409  0.50655  1.0000
  H   H138      1.0  0.52916  0.75039  0.55955  1.0000
  H   H139      1.0  0.54025  0.73496  0.47527  1.0000
  H   H140      1.0  0.50858  0.71319  0.53889  1.0000
  C   C233      1.0  0.24338  0.71956  0.37446  1.0000
  C   C234      1.0  0.24924  0.74152  0.43774  1.0000
  C   C235      1.0  0.27538  0.76800  0.43746  1.0000
  C   C236      1.0  0.29645  0.77264  0.37106  1.0000
  H   H141      1.0  0.23371  0.73854  0.48342  1.0000
  C   C237      1.0  0.27980  0.79003  0.50650  1.0000
  H   H142      1.0  0.26345  0.78149  0.55936  1.0000
  H   H143      1.0  0.27901  0.80797  0.47502  1.0000
  H   H144      1.0  0.30066  0.79801  0.53902  1.0000
  C   C238      1.0  0.72251  0.48463  0.37381  1.0000
  C   C239      1.0  0.74445  0.50071  0.43718  1.0000
  C   C240      1.0  0.77098  0.50115  0.43672  1.0000
  C   C241      1.0  0.77569  0.48484  0.37007  1.0000
  H   H145      1.0  0.74142  0.51318  0.48307  1.0000
  C   C242      1.0  0.79296  0.51872  0.50596  1.0000
  H   H146      1.0  0.78436  0.52640  0.55899  1.0000
  H   H147      1.0  0.81088  0.53752  0.47470  1.0000
  H   H148      1.0  0.80099  0.50584  0.53825  1.0000
  C   C243      1.0  0.52948  0.24073  0.37459  1.0000
  C   C244      1.0  0.51341  0.24659  0.43797  1.0000
  C   C245      1.0  0.51301  0.27270  0.43763  1.0000
  C   C246      1.0  0.52936  0.29374  0.37109  1.0000
  H   H149      1.0  0.50094  0.23109  0.48385  1.0000
  C   C247      1.0  0.49543  0.27712  0.50683  1.0000
  H   H150      1.0  0.48770  0.26080  0.55978  1.0000
  H   H151      1.0  0.47666  0.27628  0.47552  1.0000
  H   H152      1.0  0.50832  0.29800  0.53923  1.0000
  C   C248      1.0  0.77319  0.29150  0.37488  1.0000
  C   C249      1.0  0.76734  0.26953  0.43816  1.0000
  C   C250      1.0  0.74123  0.24302  0.43771  1.0000
  C   C251      1.0  0.72020  0.23835  0.37117  1.0000
  H   H153      1.0  0.78284  0.27254  0.48399  1.0000
  C   C252      1.0  0.73680  0.22099  0.50678  1.0000
  H   H154      1.0  0.75313  0.22954  0.55971  1.0000
  H   H155      1.0  0.73762  0.20306  0.47535  1.0000
  H   H156      1.0  0.71592  0.21299  0.53921  1.0000
  C   C253      1.0  0.15781  0.56747  0.36201  1.0000
  C   C254      1.0  0.15746  0.59355  0.36712  1.0000
  H   H157      1.0  0.14388  0.55071  0.40202  1.0000
  H   H158      1.0  0.14341  0.59488  0.41079  1.0000
  C   C255      1.0  0.44639  0.59319  0.36235  1.0000
  C   C256      1.0  0.42030  0.56678  0.36745  1.0000
  H   H159      1.0  0.46315  0.59597  0.40228  1.0000
  H   H160      1.0  0.41895  0.55139  0.41108  1.0000
  C   C257      1.0  0.42062  0.85590  0.36235  1.0000
  C   C258      1.0  0.44703  0.85623  0.36762  1.0000
  H   H161      1.0  0.41779  0.86985  0.40228  1.0000
  H   H162      1.0  0.46242  0.87030  0.41117  1.0000
  C   C259      1.0  0.85880  0.44363  0.36230  1.0000
  C   C260      1.0  0.85912  0.41755  0.36750  1.0000
  H   H163      1.0  0.87276  0.46041  0.40222  1.0000
  H   H164      1.0  0.87318  0.41622  0.41113  1.0000
  C   C261      1.0  0.57032  0.41793  0.36229  1.0000
  C   C262      1.0  0.59641  0.44435  0.36741  1.0000
  H   H165      1.0  0.55356  0.41513  0.40228  1.0000
  H   H166      1.0  0.59776  0.45975  0.41103  1.0000
  C   C263      1.0  0.59600  0.15510  0.36216  1.0000
  C   C264      1.0  0.56960  0.15479  0.36738  1.0000
  H   H167      1.0  0.59883  0.14116  0.40212  1.0000
  H   H168      1.0  0.55420  0.14075  0.41100  1.0000
  C   C265      1.0  0.97821  0.27175  0.35510  1.0000
  C   C266      1.0  0.99422  0.29372  0.41868  1.0000
  C   C267      1.0  0.02471  0.30926  0.42023  1.0000
  C   C268      1.0  0.04036  0.30297  0.35502  1.0000
  H   H169      1.0  0.98329  0.29908  0.46408  1.0000
  C   C269      1.0  0.03939  0.33173  0.49088  1.0000
  H   H170      1.0  0.02465  0.33076  0.54333  1.0000
  H   H171      1.0  0.04921  0.35308  0.46073  1.0000
  H   H172      1.0  0.05602  0.32895  0.52380  1.0000
  C   C270      1.0  0.74234  0.70942  0.35471  1.0000
  C   C271      1.0  0.72070  0.70379  0.41924  1.0000
  C   C272      1.0  0.70517  0.71875  0.42077  1.0000
  C   C273      1.0  0.71112  0.74033  0.35458  1.0000
  H   H173      1.0  0.71556  0.68772  0.46532  1.0000
  C   C274      1.0  0.68305  0.71135  0.49236  1.0000
  H   H174      1.0  0.68413  0.69768  0.54495  1.0000
  H   H175      1.0  0.66156  0.69987  0.46319  1.0000
  H   H176      1.0  0.68614  0.73093  0.52486  1.0000
  C   C275      1.0  0.30471  0.03569  0.35552  1.0000
  C   C276      1.0  0.31065  0.01966  0.41908  1.0000
  C   C277      1.0  0.29572  0.98917  0.42047  1.0000
  C   C278      1.0  0.27382  0.97355  0.35514  1.0000
  H   H177      1.0  0.32694  0.03057  0.46450  1.0000
  C   C279      1.0  0.30349  0.97446  0.49109  1.0000
  H   H178      1.0  0.31727  0.98918  0.54356  1.0000
  H   H179      1.0  0.31501  0.96463  0.46091  1.0000
  H   H180      1.0  0.28407  0.95783  0.52397  1.0000
  C   C280      1.0  0.03849  0.73957  0.35423  1.0000
  C   C281      1.0  0.02251  0.71806  0.41912  1.0000
  C   C282      1.0  0.99201  0.70255  0.42077  1.0000
  C   C283      1.0  0.97637  0.70837  0.35428  1.0000
  H   H181      1.0  0.03346  0.71302  0.46542  1.0000
  C   C284      1.0  0.97730  0.68059  0.49279  1.0000
  H   H182      1.0  0.99207  0.68172  0.54538  1.0000
  H   H183      1.0  0.96720  0.65903  0.46408  1.0000
  H   H184      1.0  0.96088  0.68382  0.52520  1.0000
  C   C285      1.0  0.27453  0.30186  0.35521  1.0000
  C   C286      1.0  0.29641  0.30771  0.41903  1.0000
  C   C287      1.0  0.31194  0.29276  0.42048  1.0000
  C   C288      1.0  0.30574  0.27093  0.35493  1.0000
  H   H185      1.0  0.30172  0.32395  0.46464  1.0000
  C   C289      1.0  0.33432  0.30042  0.49138  1.0000
  H   H186      1.0  0.33333  0.31417  0.54389  1.0000
  H   H187      1.0  0.35571  0.31193  0.46149  1.0000
  H   H188      1.0  0.33144  0.28095  0.52415  1.0000
  C   C290      1.0  0.71203  0.97540  0.35543  1.0000
  C   C291      1.0  0.70611  0.99145  0.41903  1.0000
  C   C292      1.0  0.72106  0.02194  0.42046  1.0000
  C   C293      1.0  0.74295  0.03756  0.35509  1.0000
  H   H189      1.0  0.68985  0.98053  0.46454  1.0000
  C   C294      1.0  0.71331  0.03664  0.49113  1.0000
  H   H190      1.0  0.69954  0.02193  0.54362  1.0000
  H   H191      1.0  0.70179  0.04648  0.46100  1.0000
  H   H192      1.0  0.73274  0.05327  0.52397  1.0000
  C   C295      1.0  0.19532  0.32470  0.35014  1.0000
  C   C296      1.0  0.18469  0.33250  0.42590  1.0000
  C   C297      1.0  0.15843  0.33290  0.42381  1.0000
  C   C298      1.0  0.14190  0.32533  0.34279  1.0000
  H   H193      1.0  0.19719  0.33948  0.48273  1.0000
  C   C299      1.0  0.14927  0.34231  0.50565  1.0000
  H   H194      1.0  0.16336  0.34607  0.56335  1.0000
  H   H195      1.0  0.12760  0.32577  0.52493  1.0000
  H   H196      1.0  0.14928  0.36228  0.49198  1.0000
  C   C300      1.0  0.68901  0.87327  0.35119  1.0000
  C   C301      1.0  0.68037  0.85447  0.42620  1.0000
  C   C302      1.0  0.67992  0.82779  0.42422  1.0000
  C   C303      1.0  0.68830  0.81920  0.34407  1.0000
  H   H197      1.0  0.67282  0.85972  0.48225  1.0000
  C   C304      1.0  0.66968  0.80887  0.50526  1.0000
  H   H198      1.0  0.66552  0.81903  0.56260  1.0000
  H   H199      1.0  0.68593  0.80349  0.52596  1.0000
  H   H200      1.0  0.64975  0.78906  0.48993  1.0000
  C   C305      1.0  0.14046  0.81869  0.34856  1.0000
  C   C306      1.0  0.15846  0.82965  0.42517  1.0000
  C   C307      1.0  0.18511  0.85593  0.42335  1.0000
  C   C308      1.0  0.19450  0.87211  0.34177  1.0000
  H   H201      1.0  0.15263  0.81740  0.48259  1.0000
  C   C309      1.0  0.20330  0.86543  0.50602  1.0000
  H   H202      1.0  0.19276  0.85150  0.56387  1.0000
  H   H203      1.0  0.20823  0.88713  0.52414  1.0000
  H   H204      1.0  0.22337  0.86550  0.49394  1.0000
  C   C310      1.0  0.82134  0.68631  0.35075  1.0000
  C   C311      1.0  0.83160  0.67789  0.42605  1.0000
  C   C312      1.0  0.85782  0.67743  0.42422  1.0000
  C   C313      1.0  0.87469  0.68554  0.34387  1.0000
  H   H205      1.0  0.81888  0.67056  0.48233  1.0000
  C   C314      1.0  0.86661  0.66744  0.50561  1.0000
  H   H206      1.0  0.85234  0.66343  0.56300  1.0000
  H   H207      1.0  0.88825  0.68377  0.52595  1.0000
  H   H208      1.0  0.86651  0.64749  0.49089  1.0000
  C   C315      1.0  0.32751  0.13774  0.35054  1.0000
  C   C316      1.0  0.33554  0.15627  0.42613  1.0000
  C   C317      1.0  0.33596  0.18293  0.42404  1.0000
  C   C318      1.0  0.32815  0.19179  0.34328  1.0000
  H   H209      1.0  0.34270  0.15084  0.48274  1.0000
  C   C319      1.0  0.34561  0.20161  0.50565  1.0000
  H   H210      1.0  0.34950  0.19134  0.56325  1.0000
  H   H211      1.0  0.32916  0.20682  0.52534  1.0000
  H   H212      1.0  0.36557  0.22153  0.49147  1.0000
  C   C320      1.0  0.87622  0.19246  0.34972  1.0000
  C   C321      1.0  0.85778  0.18187  0.42551  1.0000
  C   C322      1.0  0.83112  0.15562  0.42356  1.0000
  C   C323      1.0  0.82213  0.13909  0.34258  1.0000
  H   H213      1.0  0.86333  0.19436  0.48236  1.0000
  C   C324      1.0  0.81257  0.14649  0.50544  1.0000
  H   H214      1.0  0.82291  0.16059  0.56310  1.0000
  H   H215      1.0  0.80743  0.12481  0.52478  1.0000
  H   H216      1.0  0.79261  0.14650  0.49179  1.0000
