data_image0
_chemical_formula_structural       C4H3NH2C4H2C4HNH2C4H2C4HNH2C4H2C4HNH2C4H3NH2C4H3NH2C4H3NH2C4H3NH2C4H2C4HNH2C4H2C4HNH2C4H3NH2C4H2C4HNH2C4H2C4HNH2C4H2C4HNH2C4H3NH2C4H3NH2C4H3NH2C4H3NH2C4H2C4HNH2C4H2C4HNH2C4H3NH2C4H3NH2C4H2C4HNH2C4H2C4HNH2C4H3NH2C4H3NH2C4H2C4HNH2C4H2C4HNH2C4H3NH2C4H3NH2C4H2C4HNH2C4H2C4HNH2C4H3NH2C4H3NH2C4H2C4HNH2C4H2C4HNH2CNCNCNCNCNCNCNCNCNCNCNCNCNCNCNCNCNCNCNCNCNCNCNCNCNCNCNCNCNCNCNCNCNCNCNCNCNCNCNCNCNCNCNCNCNCNCNCNCNCNCNCNCNCNCNCNCNCNCNCNCNCNCNCNCNCNCNCNCNCNCNCNC4H2C4HNH2C4H3NH2C4H3NH2C4H3NH2C4H2C4HNH2C4H2C4HNH2C4H2C4HNH2C4H2C4HNH2C4H3NH2C4H3NH2C4H2C4HNH2C4H3NH2C4H3NH2C4H3NH2C4H2C4HNH2C4H2C4HNH2C4H2C4HNH2C4H2C4HNH2C4H3NH2C4H3NH2C4H2C4HNH2C4H2C4HNH2C4H3NH2C4H3NH2C4H2C4HNH2C4H2C4HNH2C4H3NH2C4H3NH2C4H2C4HNH2C4H2C4HNH2C4H3NH2C4H3NH2C4H2C4HNH2C4H2C4HNH2C4H3NH2C4H3NH2
_chemical_formula_sum              "C504 H360 N144"
_cell_length_a       63.7767
_cell_length_b       81.0918
_cell_length_c       14.8841
_cell_angle_alpha    90
_cell_angle_beta     90
_cell_angle_gamma    90

_space_group_name_H-M_alt    "P 1"
_space_group_IT_number       1

loop_
  _space_group_symop_operation_xyz
  'x, y, z'

loop_
  _atom_site_type_symbol
  _atom_site_label
  _atom_site_symmetry_multiplicity
  _atom_site_fract_x
  _atom_site_fract_y
  _atom_site_fract_z
  _atom_site_occupancy
  C   C1        1.0  0.54428  0.98261  0.30973  1.0000
  C   C2        1.0  0.53234  0.99742  0.30778  1.0000
  C   C3        1.0  0.47953  0.01241  0.29493  1.0000
  C   C4        1.0  0.46652  0.02645  0.29537  1.0000
  H   H1        1.0  0.47521  0.00258  0.25579  1.0000
  H   H2        1.0  0.45328  0.02639  0.25645  1.0000
  H   H3        1.0  0.55939  0.98290  0.28657  1.0000
  N   N1        1.0  0.54150  0.01121  0.27338  1.0000
  H   H4        1.0  0.55582  0.01104  0.25066  1.0000
  H   H5        1.0  0.53378  0.02142  0.26562  1.0000
  C   C5        1.0  0.97193  0.46737  0.34322  1.0000
  C   C6        1.0  0.99654  0.49725  0.34218  1.0000
  C   C7        1.0  0.00502  0.48202  0.31325  1.0000
  C   C8        1.0  0.99309  0.46742  0.31462  1.0000
  H   H6        1.0  0.02010  0.48144  0.28958  1.0000
  H   H7        1.0  0.99998  0.45680  0.29203  1.0000
  C   C9        1.0  0.00945  0.51180  0.33676  1.0000
  C   C10       1.0  0.03565  0.54073  0.33810  1.0000
  C   C11       1.0  0.01697  0.54008  0.28688  1.0000
  C   C12       1.0  0.00413  0.52578  0.28306  1.0000
  H   H8        1.0  0.01294  0.55011  0.24882  1.0000
  N   N2        1.0  0.98728  0.52594  0.22684  1.0000
  H   H9        1.0  0.97869  0.51622  0.21734  1.0000
  H   H10       1.0  0.98411  0.53549  0.18955  1.0000
  C   C13       1.0  0.40378  0.06847  0.32939  1.0000
  C   C14       1.0  0.35860  0.06907  0.33029  1.0000
  C   C15       1.0  0.37044  0.08283  0.30136  1.0000
  C   C16       1.0  0.39247  0.08259  0.30171  1.0000
  H   H11       1.0  0.36306  0.09338  0.28042  1.0000
  H   H12       1.0  0.40016  0.09299  0.28088  1.0000
  C   C17       1.0  0.33615  0.07069  0.33227  1.0000
  C   C18       1.0  0.29172  0.07646  0.33938  1.0000
  C   C19       1.0  0.30024  0.06389  0.28455  1.0000
  C   C20       1.0  0.32222  0.06115  0.27799  1.0000
  H   H13       1.0  0.29030  0.05724  0.24444  1.0000
  N   N3        1.0  0.32923  0.04979  0.21774  1.0000
  H   H14       1.0  0.34406  0.04800  0.20719  1.0000
  H   H15       1.0  0.31954  0.04360  0.18000  1.0000
  C   C21       1.0  0.60393  0.93907  0.33206  1.0000
  C   C22       1.0  0.64910  0.93850  0.33309  1.0000
  C   C23       1.0  0.63727  0.92466  0.30509  1.0000
  C   C24       1.0  0.61525  0.92489  0.30538  1.0000
  H   H16       1.0  0.64467  0.91408  0.28462  1.0000
  H   H17       1.0  0.60757  0.91446  0.28494  1.0000
  C   C25       1.0  0.67156  0.93693  0.33454  1.0000
  C   C26       1.0  0.71601  0.93125  0.34040  1.0000
  C   C27       1.0  0.70736  0.94373  0.28538  1.0000
  C   C28       1.0  0.68536  0.94642  0.27940  1.0000
  H   H18       1.0  0.71721  0.95035  0.24466  1.0000
  N   N4        1.0  0.67821  0.95767  0.21884  1.0000
  H   H19       1.0  0.66337  0.95941  0.20859  1.0000
  H   H20       1.0  0.68783  0.96383  0.18051  1.0000
  C   C29       1.0  0.11587  0.55455  0.32589  1.0000
  C   C30       1.0  0.13817  0.55468  0.32312  1.0000
  C   C31       1.0  0.18031  0.58296  0.29342  1.0000
  C   C32       1.0  0.20199  0.58597  0.29104  1.0000
  H   H21       1.0  0.17077  0.59010  0.25392  1.0000
  H   H22       1.0  0.20744  0.59515  0.24994  1.0000
  H   H23       1.0  0.10808  0.54429  0.30375  1.0000
  N   N5        1.0  0.14821  0.54113  0.29046  1.0000
  H   H24       1.0  0.14045  0.53148  0.27005  1.0000
  H   H25       1.0  0.16332  0.54080  0.28327  1.0000
  C   C33       1.0  0.89202  0.45304  0.32395  1.0000
  C   C34       1.0  0.86972  0.45293  0.32111  1.0000
  C   C35       1.0  0.82742  0.42476  0.29091  1.0000
  C   C36       1.0  0.80572  0.42179  0.28912  1.0000
  H   H26       1.0  0.83687  0.41765  0.25084  1.0000
  H   H27       1.0  0.80017  0.41268  0.24785  1.0000
  H   H28       1.0  0.89982  0.46336  0.30270  1.0000
  N   N6        1.0  0.85969  0.46655  0.28929  1.0000
  H   H29       1.0  0.86746  0.47623  0.26943  1.0000
  H   H30       1.0  0.84459  0.46690  0.28207  1.0000
  C   C37       1.0  0.48833  0.10308  0.31824  1.0000
  C   C38       1.0  0.49777  0.11894  0.31533  1.0000
  C   C39       1.0  0.48412  0.16142  0.29246  1.0000
  C   C40       1.0  0.49086  0.17791  0.29146  1.0000
  H   H31       1.0  0.47152  0.15825  0.25340  1.0000
  H   H32       1.0  0.48298  0.18617  0.25182  1.0000
  H   H33       1.0  0.49673  0.09313  0.29580  1.0000
  N   N7        1.0  0.51756  0.12024  0.28165  1.0000
  H   H34       1.0  0.52519  0.11059  0.26038  1.0000
  H   H35       1.0  0.52438  0.13082  0.27373  1.0000
  C   C41       1.0  0.51919  0.90476  0.31396  1.0000
  C   C42       1.0  0.50972  0.88890  0.31087  1.0000
  C   C43       1.0  0.52337  0.84641  0.28948  1.0000
  C   C44       1.0  0.51671  0.82989  0.28892  1.0000
  H   H36       1.0  0.53603  0.84956  0.25072  1.0000
  H   H37       1.0  0.52469  0.82161  0.24984  1.0000
  H   H38       1.0  0.51088  0.91471  0.29095  1.0000
  N   N8        1.0  0.49002  0.88761  0.27632  1.0000
  H   H39       1.0  0.48246  0.89725  0.25452  1.0000
  H   H40       1.0  0.48318  0.87703  0.26843  1.0000
  C   C45       1.0  0.04045  0.60065  0.33610  1.0000
  C   C46       1.0  0.02170  0.63291  0.33680  1.0000
  C   C47       1.0  0.04259  0.63045  0.30772  1.0000
  C   C48       1.0  0.05183  0.61472  0.30837  1.0000
  H   H41       1.0  0.05142  0.64021  0.28577  1.0000
  H   H42       1.0  0.06702  0.61367  0.28686  1.0000
  C   C49       1.0  0.01355  0.64941  0.33593  1.0000
  C   C50       1.0  0.99930  0.68296  0.34043  1.0000
  C   C51       1.0  0.98896  0.67096  0.28756  1.0000
  C   C52       1.0  0.99613  0.65441  0.28215  1.0000
  H   H43       1.0  0.97657  0.67456  0.24835  1.0000
  N   N9        1.0  0.98635  0.64402  0.22374  1.0000
  H   H44       1.0  0.99131  0.63287  0.21348  1.0000
  H   H45       1.0  0.97474  0.64775  0.18637  1.0000
  C   C53       1.0  0.96768  0.40717  0.33928  1.0000
  C   C54       1.0  0.98650  0.37494  0.34044  1.0000
  C   C55       1.0  0.96570  0.37738  0.31022  1.0000
  C   C56       1.0  0.95643  0.39309  0.31057  1.0000
  H   H46       1.0  0.95696  0.36762  0.28755  1.0000
  H   H47       1.0  0.94132  0.39413  0.28811  1.0000
  C   C57       1.0  0.99466  0.35844  0.33962  1.0000
  C   C58       1.0  0.00874  0.32485  0.34320  1.0000
  C   C59       1.0  0.01921  0.33688  0.29108  1.0000
  C   C60       1.0  0.01214  0.35347  0.28612  1.0000
  H   H48       1.0  0.03163  0.33330  0.25204  1.0000
  N   N10       1.0  0.02204  0.36391  0.22836  1.0000
  H   H49       1.0  0.01716  0.37508  0.21846  1.0000
  H   H50       1.0  0.03369  0.36019  0.19117  1.0000
  C   C61       1.0  0.46650  0.47972  0.30394  1.0000
  C   C62       1.0  0.48791  0.48450  0.30156  1.0000
  C   C63       1.0  0.52123  0.51985  0.29196  1.0000
  C   C64       1.0  0.54206  0.52557  0.29242  1.0000
  H   H51       1.0  0.51044  0.52611  0.25399  1.0000
  H   H52       1.0  0.54570  0.53577  0.25502  1.0000
  H   H53       1.0  0.46253  0.46831  0.27979  1.0000
  N   N11       1.0  0.50204  0.47382  0.26514  1.0000
  H   H54       1.0  0.49769  0.46318  0.24110  1.0000
  H   H55       1.0  0.51665  0.47676  0.25703  1.0000
  C   C65       1.0  0.05739  0.99026  0.34672  1.0000
  C   C66       1.0  0.01404  0.00028  0.34627  1.0000
  C   C67       1.0  0.03013  0.01093  0.31578  1.0000
  C   C68       1.0  0.05135  0.00611  0.31694  1.0000
  H   H56       1.0  0.02648  0.02235  0.29072  1.0000
  H   H57       1.0  0.06232  0.01416  0.29250  1.0000
  C   C69       1.0  0.99261  0.00573  0.34076  1.0000
  C   C70       1.0  0.94989  0.01705  0.34228  1.0000
  C   C71       1.0  0.95591  0.00296  0.29264  1.0000
  C   C72       1.0  0.97702  0.99742  0.28874  1.0000
  H   H58       1.0  0.94479  0.99695  0.25525  1.0000
  N   N12       1.0  0.98163  0.98449  0.23381  1.0000
  H   H59       1.0  0.99593  0.98082  0.22423  1.0000
  H   H60       1.0  0.97085  0.97917  0.19759  1.0000
  C   C73       1.0  0.40052  0.44523  0.34637  1.0000
  C   C74       1.0  0.39339  0.41021  0.34449  1.0000
  C   C75       1.0  0.37772  0.42143  0.31635  1.0000
  C   C76       1.0  0.38111  0.43858  0.31824  1.0000
  H   H61       1.0  0.36366  0.41717  0.29241  1.0000
  H   H62       1.0  0.36942  0.44616  0.29554  1.0000
  C   C77       1.0  0.38933  0.39284  0.33729  1.0000
  C   C78       1.0  0.38154  0.35799  0.33808  1.0000
  C   C79       1.0  0.39779  0.36491  0.28551  1.0000
  C   C80       1.0  0.40157  0.38214  0.28208  1.0000
  H   H63       1.0  0.40679  0.35724  0.24671  1.0000
  N   N13       1.0  0.41671  0.38777  0.22531  1.0000
  H   H64       1.0  0.41914  0.39946  0.21629  1.0000
  H   H65       1.0  0.42465  0.38026  0.18718  1.0000
  C   C81       1.0  0.60701  0.56269  0.34287  1.0000
  C   C82       1.0  0.61413  0.59772  0.34073  1.0000
  C   C83       1.0  0.62983  0.58649  0.31291  1.0000
  C   C84       1.0  0.62643  0.56934  0.31493  1.0000
  H   H66       1.0  0.64392  0.59075  0.28933  1.0000
  H   H67       1.0  0.63817  0.56176  0.29276  1.0000
  C   C85       1.0  0.61825  0.61509  0.33393  1.0000
  C   C86       1.0  0.62620  0.64993  0.33546  1.0000
  C   C87       1.0  0.60997  0.64308  0.28247  1.0000
  C   C88       1.0  0.60613  0.62586  0.27866  1.0000
  H   H68       1.0  0.60104  0.65079  0.24365  1.0000
  N   N14       1.0  0.59102  0.62030  0.22150  1.0000
  H   H69       1.0  0.58855  0.60862  0.21226  1.0000
  H   H70       1.0  0.58315  0.62784  0.18336  1.0000
  C   C89       1.0  0.09172  0.93398  0.30665  1.0000
  C   C90       1.0  0.09502  0.91667  0.30504  1.0000
  C   C91       1.0  0.13492  0.88594  0.29341  1.0000
  C   C92       1.0  0.13897  0.86887  0.29410  1.0000
  H   H71       1.0  0.14395  0.89331  0.25303  1.0000
  H   H72       1.0  0.15072  0.86438  0.25412  1.0000
  H   H73       1.0  0.07771  0.93849  0.28372  1.0000
  N   N15       1.0  0.07953  0.90692  0.27112  1.0000
  H   H74       1.0  0.06652  0.91161  0.24822  1.0000
  H   H75       1.0  0.08134  0.89513  0.26367  1.0000
  C   C93       1.0  0.91637  0.07396  0.31068  1.0000
  C   C94       1.0  0.91307  0.09126  0.30921  1.0000
  C   C95       1.0  0.87308  0.12192  0.29635  1.0000
  C   C96       1.0  0.86895  0.13898  0.29667  1.0000
  H   H76       1.0  0.86412  0.11450  0.25593  1.0000
  H   H77       1.0  0.85723  0.14341  0.25637  1.0000
  H   H78       1.0  0.93038  0.06945  0.28779  1.0000
  N   N16       1.0  0.92859  0.10102  0.27561  1.0000
  H   H79       1.0  0.94162  0.09634  0.25295  1.0000
  H   H80       1.0  0.92679  0.11282  0.26821  1.0000
  C   C97       1.0  0.28648  0.54379  0.31724  1.0000
  C   C98       1.0  0.30257  0.53166  0.31445  1.0000
  C   C99       1.0  0.35843  0.52751  0.29734  1.0000
  C   C100      1.0  0.37568  0.51667  0.29734  1.0000
  H   H81       1.0  0.35927  0.53790  0.25829  1.0000
  H   H82       1.0  0.38838  0.51948  0.25817  1.0000
  H   H83       1.0  0.27182  0.54072  0.29474  1.0000
  N   N17       1.0  0.29778  0.51653  0.28046  1.0000
  H   H84       1.0  0.28374  0.51399  0.25869  1.0000
  H   H85       1.0  0.30835  0.50807  0.27227  1.0000
  C   C101      1.0  0.72155  0.46414  0.31885  1.0000
  C   C102      1.0  0.70554  0.47634  0.31648  1.0000
  C   C103      1.0  0.64970  0.48053  0.29943  1.0000
  C   C104      1.0  0.63245  0.49136  0.29919  1.0000
  H   H86       1.0  0.64886  0.47011  0.26065  1.0000
  H   H87       1.0  0.61974  0.48851  0.26015  1.0000
  H   H88       1.0  0.73621  0.46717  0.29611  1.0000
  N   N18       1.0  0.71039  0.49146  0.28251  1.0000
  H   H89       1.0  0.72443  0.49396  0.26054  1.0000
  H   H90       1.0  0.69987  0.49996  0.27453  1.0000
  C   C105      1.0  0.21758  0.06018  0.33647  1.0000
  C   C106      1.0  0.18466  0.03581  0.33697  1.0000
  C   C107      1.0  0.18096  0.05217  0.30809  1.0000
  C   C108      1.0  0.19695  0.06411  0.30878  1.0000
  H   H91       1.0  0.16641  0.05559  0.28542  1.0000
  H   H92       1.0  0.19337  0.07573  0.28671  1.0000
  C   C109      1.0  0.16757  0.02424  0.33341  1.0000
  C   C110      1.0  0.13265  0.00178  0.33577  1.0000
  C   C111      1.0  0.15080  0.99851  0.28411  1.0000
  C   C112      1.0  0.16796  0.00965  0.27970  1.0000
  H   H93       1.0  0.15123  0.98801  0.24584  1.0000
  N   N19       1.0  0.18403  0.00606  0.22269  1.0000
  H   H94       1.0  0.19553  0.01367  0.21278  1.0000
  H   H95       1.0  0.18382  0.99619  0.18536  1.0000
  C   C113      1.0  0.79003  0.94774  0.33509  1.0000
  C   C114      1.0  0.82280  0.97225  0.33469  1.0000
  C   C115      1.0  0.82657  0.95589  0.30594  1.0000
  C   C116      1.0  0.81065  0.94389  0.30708  1.0000
  H   H96       1.0  0.84112  0.95251  0.28319  1.0000
  H   H97       1.0  0.81429  0.93227  0.28519  1.0000
  C   C117      1.0  0.83987  0.98385  0.33138  1.0000
  C   C118      1.0  0.87479  0.00630  0.33430  1.0000
  C   C119      1.0  0.85663  0.00965  0.28286  1.0000
  C   C120      1.0  0.83948  0.99850  0.27812  1.0000
  H   H98       1.0  0.85623  0.02019  0.24492  1.0000
  N   N20       1.0  0.82341  0.00214  0.22121  1.0000
  H   H99       1.0  0.81192  0.99453  0.21111  1.0000
  H   H100      1.0  0.82361  0.01204  0.18416  1.0000
  C   C121      1.0  0.19955  0.19323  0.31709  1.0000
  C   C122      1.0  0.20281  0.17592  0.31426  1.0000
  C   C123      1.0  0.24384  0.14636  0.29669  1.0000
  C   C124      1.0  0.24944  0.12961  0.29541  1.0000
  H   H101      1.0  0.25246  0.15443  0.25867  1.0000
  H   H102      1.0  0.26188  0.12604  0.25646  1.0000
  H   H103      1.0  0.18573  0.19789  0.29289  1.0000
  N   N21       1.0  0.18748  0.16628  0.27818  1.0000
  H   H104      1.0  0.17453  0.17104  0.25505  1.0000
  H   H105      1.0  0.18927  0.15450  0.27027  1.0000
  C   C125      1.0  0.80838  0.81459  0.31689  1.0000
  C   C126      1.0  0.80511  0.83191  0.31401  1.0000
  C   C127      1.0  0.76404  0.86146  0.29685  1.0000
  C   C128      1.0  0.75841  0.87820  0.29553  1.0000
  H   H106      1.0  0.75539  0.85337  0.25909  1.0000
  H   H107      1.0  0.74592  0.88174  0.25682  1.0000
  H   H108      1.0  0.82217  0.80993  0.29251  1.0000
  N   N22       1.0  0.82041  0.84153  0.27764  1.0000
  H   H109      1.0  0.83334  0.83677  0.25434  1.0000
  H   H110      1.0  0.81862  0.85332  0.26966  1.0000
  C   C129      1.0  0.29267  0.70433  0.33447  1.0000
  C   C130      1.0  0.28569  0.66935  0.33501  1.0000
  C   C131      1.0  0.27019  0.68042  0.30359  1.0000
  C   C132      1.0  0.27351  0.69754  0.30428  1.0000
  H   H111      1.0  0.25617  0.67608  0.27961  1.0000
  H   H112      1.0  0.26179  0.70500  0.28066  1.0000
  C   C133      1.0  0.28103  0.65207  0.33338  1.0000
  C   C134      1.0  0.27008  0.61783  0.33847  1.0000
  C   C135      1.0  0.28727  0.62345  0.28691  1.0000
  C   C136      1.0  0.29259  0.64042  0.28120  1.0000
  H   H113      1.0  0.29554  0.61509  0.24938  1.0000
  N   N23       1.0  0.30832  0.64495  0.22447  1.0000
  H   H114      1.0  0.31184  0.65643  0.21415  1.0000
  H   H115      1.0  0.31576  0.63683  0.18823  1.0000
  C   C137      1.0  0.71496  0.30351  0.33445  1.0000
  C   C138      1.0  0.72192  0.33849  0.33503  1.0000
  C   C139      1.0  0.73740  0.32743  0.30333  1.0000
  C   C140      1.0  0.73409  0.31031  0.30400  1.0000
  H   H116      1.0  0.75140  0.33178  0.27918  1.0000
  H   H117      1.0  0.74579  0.30285  0.28020  1.0000
  C   C141      1.0  0.72660  0.35578  0.33351  1.0000
  C   C142      1.0  0.73761  0.39002  0.33868  1.0000
  C   C143      1.0  0.72035  0.38442  0.28745  1.0000
  C   C144      1.0  0.71500  0.36746  0.28168  1.0000
  H   H118      1.0  0.71206  0.39280  0.25016  1.0000
  N   N24       1.0  0.69921  0.36296  0.22521  1.0000
  H   H119      1.0  0.69566  0.35149  0.21484  1.0000
  H   H120      1.0  0.69173  0.37110  0.18920  1.0000
  C   C145      1.0  0.26396  0.25350  0.31375  1.0000
  C   C146      1.0  0.28219  0.26350  0.31349  1.0000
  C   C147      1.0  0.30099  0.30437  0.30089  1.0000
  C   C148      1.0  0.31944  0.31391  0.30263  1.0000
  H   H121      1.0  0.28950  0.30741  0.25569  1.0000
  H   H122      1.0  0.32097  0.32347  0.25819  1.0000
  H   H123      1.0  0.26518  0.24159  0.29158  1.0000
  N   N25       1.0  0.30041  0.25684  0.28239  1.0000
  H   H124      1.0  0.30101  0.24555  0.26024  1.0000
  H   H125      1.0  0.31313  0.26333  0.27661  1.0000
  C   C149      1.0  0.74391  0.75437  0.31385  1.0000
  C   C150      1.0  0.72568  0.74439  0.31343  1.0000
  C   C151      1.0  0.70686  0.70352  0.29984  1.0000
  C   C152      1.0  0.68840  0.69399  0.30132  1.0000
  H   H126      1.0  0.71834  0.70051  0.25459  1.0000
  H   H127      1.0  0.68686  0.68446  0.25664  1.0000
  H   H128      1.0  0.74269  0.76630  0.29196  1.0000
  N   N26       1.0  0.70745  0.75107  0.28256  1.0000
  H   H129      1.0  0.70685  0.76238  0.26069  1.0000
  H   H130      1.0  0.69473  0.74460  0.27667  1.0000
  C   C153      1.0  0.26362  0.75949  0.34042  1.0000
  C   C154      1.0  0.22709  0.78004  0.33685  1.0000
  C   C155      1.0  0.24689  0.78621  0.31056  1.0000
  C   C156      1.0  0.26486  0.77616  0.31319  1.0000
  H   H131      1.0  0.24832  0.79802  0.28682  1.0000
  H   H132      1.0  0.27877  0.78103  0.29136  1.0000
  C   C157      1.0  0.20907  0.79032  0.32576  1.0000
  C   C158      1.0  0.17142  0.80936  0.32391  1.0000
  C   C159      1.0  0.17400  0.79565  0.26619  1.0000
  C   C160      1.0  0.19269  0.78624  0.26446  1.0000
  H   H133      1.0  0.16193  0.79239  0.22437  1.0000
  N   N27       1.0  0.19410  0.77354  0.20482  1.0000
  H   H134      1.0  0.20689  0.76719  0.19777  1.0000
  H   H135      1.0  0.18276  0.77110  0.16304  1.0000
  C   C161      1.0  0.74407  0.24836  0.34058  1.0000
  C   C162      1.0  0.78062  0.22781  0.33732  1.0000
  C   C163      1.0  0.76081  0.22162  0.31130  1.0000
  C   C164      1.0  0.74283  0.23166  0.31378  1.0000
  H   H136      1.0  0.75937  0.20979  0.28790  1.0000
  H   H137      1.0  0.72892  0.22677  0.29220  1.0000
  C   C165      1.0  0.79864  0.21753  0.32647  1.0000
  C   C166      1.0  0.83631  0.19850  0.32511  1.0000
  C   C167      1.0  0.83371  0.21215  0.26701  1.0000
  C   C168      1.0  0.81502  0.22156  0.26504  1.0000
  H   H138      1.0  0.84578  0.21537  0.22508  1.0000
  N   N28       1.0  0.81360  0.23419  0.20506  1.0000
  H   H139      1.0  0.80081  0.24054  0.19784  1.0000
  H   H140      1.0  0.82493  0.23660  0.16319  1.0000
  C   C169      1.0  0.49561  0.25725  0.31515  1.0000
  C   C170      1.0  0.48061  0.27015  0.31243  1.0000
  C   C171      1.0  0.42603  0.27676  0.28795  1.0000
  C   C172      1.0  0.40947  0.28815  0.28677  1.0000
  H   H141      1.0  0.42496  0.26655  0.24762  1.0000
  H   H142      1.0  0.39685  0.28586  0.24605  1.0000
  H   H143      1.0  0.51054  0.25968  0.29352  1.0000
  N   N29       1.0  0.48666  0.28509  0.27973  1.0000
  H   H144      1.0  0.50093  0.28700  0.25876  1.0000
  H   H145      1.0  0.47684  0.29411  0.27219  1.0000
  C   C173      1.0  0.51215  0.75057  0.31391  1.0000
  C   C174      1.0  0.52719  0.73770  0.31130  1.0000
  C   C175      1.0  0.58179  0.73118  0.28692  1.0000
  C   C176      1.0  0.59836  0.71979  0.28567  1.0000
  H   H146      1.0  0.58285  0.74139  0.24662  1.0000
  H   H147      1.0  0.61098  0.72209  0.24494  1.0000
  H   H148      1.0  0.49723  0.74812  0.29225  1.0000
  N   N30       1.0  0.52117  0.72274  0.27866  1.0000
  H   H149      1.0  0.50691  0.72081  0.25767  1.0000
  H   H150      1.0  0.53102  0.71373  0.27115  1.0000
  C   C177      1.0  0.01731  0.74104  0.33928  1.0000
  C   C178      1.0  0.04800  0.76686  0.33987  1.0000
  C   C179      1.0  0.05318  0.75068  0.31200  1.0000
  C   C180      1.0  0.03821  0.73798  0.31265  1.0000
  H   H151      1.0  0.06805  0.74797  0.29038  1.0000
  H   H152      1.0  0.04267  0.72651  0.29120  1.0000
  C   C181      1.0  0.06410  0.77914  0.33824  1.0000
  C   C182      1.0  0.09742  0.80265  0.34318  1.0000
  C   C183      1.0  0.07967  0.80524  0.28825  1.0000
  C   C184      1.0  0.06322  0.79348  0.28272  1.0000
  H   H153      1.0  0.07926  0.81543  0.24760  1.0000
  N   N31       1.0  0.04747  0.79619  0.22277  1.0000
  H   H154      1.0  0.03645  0.78817  0.21265  1.0000
  H   H155      1.0  0.04738  0.80592  0.18432  1.0000
  C   C185      1.0  0.99054  0.26680  0.34066  1.0000
  C   C186      1.0  0.95978  0.24102  0.34099  1.0000
  C   C187      1.0  0.95464  0.25722  0.31322  1.0000
  C   C188      1.0  0.96965  0.26990  0.31401  1.0000
  H   H156      1.0  0.93978  0.25995  0.29159  1.0000
  H   H157      1.0  0.96522  0.28138  0.29263  1.0000
  C   C189      1.0  0.94365  0.22877  0.33929  1.0000
  C   C190      1.0  0.91030  0.20528  0.34435  1.0000
  C   C191      1.0  0.92805  0.20267  0.28945  1.0000
  C   C192      1.0  0.94451  0.21441  0.28386  1.0000
  H   H158      1.0  0.92846  0.19246  0.24891  1.0000
  N   N32       1.0  0.96026  0.21168  0.22394  1.0000
  H   H159      1.0  0.97129  0.21970  0.21376  1.0000
  H   H160      1.0  0.96035  0.20194  0.18554  1.0000
  C   C193      1.0  0.16473  0.26829  0.31296  1.0000
  C   C194      1.0  0.14433  0.27526  0.30952  1.0000
  C   C195      1.0  0.09088  0.26381  0.28707  1.0000
  C   C196      1.0  0.06988  0.26901  0.28540  1.0000
  H   H161      1.0  0.09510  0.25397  0.24781  1.0000
  H   H162      1.0  0.05952  0.26278  0.24525  1.0000
  H   H163      1.0  0.17711  0.27521  0.29058  1.0000
  N   N33       1.0  0.14214  0.29073  0.27518  1.0000
  H   H164      1.0  0.15419  0.29696  0.25354  1.0000
  H   H165      1.0  0.12850  0.29579  0.26704  1.0000
  C   C197      1.0  0.84314  0.73950  0.31256  1.0000
  C   C198      1.0  0.86352  0.73252  0.30895  1.0000
  C   C199      1.0  0.91698  0.74396  0.28609  1.0000
  C   C200      1.0  0.93798  0.73875  0.28415  1.0000
  H   H166      1.0  0.91275  0.75381  0.24699  1.0000
  H   H167      1.0  0.94833  0.74499  0.24400  1.0000
  H   H168      1.0  0.83075  0.73260  0.29022  1.0000
  N   N34       1.0  0.86569  0.71705  0.27448  1.0000
  H   H169      1.0  0.85362  0.71084  0.25289  1.0000
  H   H170      1.0  0.87932  0.71198  0.26620  1.0000
  C   C201      1.0  0.33933  0.75196  0.33972  1.0000
  C   C202      1.0  0.38080  0.76573  0.34181  1.0000
  C   C203      1.0  0.37714  0.74940  0.31219  1.0000
  C   C204      1.0  0.35687  0.74260  0.31204  1.0000
  H   H171      1.0  0.38931  0.74224  0.28977  1.0000
  H   H172      1.0  0.35505  0.73076  0.28935  1.0000
  C   C205      1.0  0.40188  0.77182  0.34045  1.0000
  C   C206      1.0  0.44452  0.78280  0.34624  1.0000
  C   C207      1.0  0.42951  0.79096  0.29240  1.0000
  C   C208      1.0  0.40842  0.78544  0.28647  1.0000
  H   H173      1.0  0.43428  0.80061  0.25296  1.0000
  N   N35       1.0  0.39536  0.79316  0.22760  1.0000
  H   H174      1.0  0.38116  0.78935  0.21714  1.0000
  H   H175      1.0  0.40024  0.80224  0.19016  1.0000
  C   C209      1.0  0.66834  0.25584  0.34005  1.0000
  C   C210      1.0  0.62688  0.24204  0.34248  1.0000
  C   C211      1.0  0.63052  0.25837  0.31275  1.0000
  C   C212      1.0  0.65078  0.26518  0.31243  1.0000
  H   H176      1.0  0.61833  0.26551  0.29040  1.0000
  H   H177      1.0  0.65258  0.27701  0.28969  1.0000
  C   C213      1.0  0.60580  0.23594  0.34140  1.0000
  C   C214      1.0  0.56316  0.22495  0.34778  1.0000
  C   C215      1.0  0.57815  0.21677  0.29390  1.0000
  C   C216      1.0  0.59923  0.22229  0.28767  1.0000
  H   H178      1.0  0.57336  0.20710  0.25461  1.0000
  N   N36       1.0  0.61226  0.21455  0.22876  1.0000
  H   H179      1.0  0.62645  0.21836  0.21810  1.0000
  H   H180      1.0  0.60736  0.20545  0.19148  1.0000
  C   C217      1.0  0.42622  0.06869  0.33352  1.0000
  N   N37       1.0  0.43824  0.05476  0.33562  1.0000
  C   C218      1.0  0.45960  0.05533  0.34160  1.0000
  N   N38       1.0  0.46886  0.07048  0.34531  1.0000
  C   C219      1.0  0.45765  0.08476  0.34355  1.0000
  N   N39       1.0  0.43647  0.08338  0.33778  1.0000
  C   C220      1.0  0.58147  0.93892  0.33486  1.0000
  N   N40       1.0  0.56953  0.95288  0.33572  1.0000
  C   C221      1.0  0.54811  0.95253  0.33871  1.0000
  N   N41       1.0  0.53876  0.93740  0.34109  1.0000
  C   C222      1.0  0.54984  0.92304  0.34101  1.0000
  N   N42       1.0  0.57107  0.92431  0.33777  1.0000
  C   C223      1.0  0.08157  0.56868  0.34869  1.0000
  N   N43       1.0  0.06955  0.55476  0.34660  1.0000
  C   C224      1.0  0.04818  0.55533  0.34063  1.0000
  N   N44       1.0  0.03893  0.57047  0.33691  1.0000
  C   C225      1.0  0.05013  0.58476  0.33868  1.0000
  N   N45       1.0  0.07132  0.58337  0.34443  1.0000
  C   C226      1.0  0.92631  0.43892  0.34739  1.0000
  N   N46       1.0  0.93825  0.45288  0.34654  1.0000
  C   C227      1.0  0.95967  0.45253  0.34355  1.0000
  N   N47       1.0  0.96903  0.43740  0.34117  1.0000
  C   C228      1.0  0.95794  0.42304  0.34126  1.0000
  N   N48       1.0  0.93672  0.42431  0.34449  1.0000
  C   C229      1.0  0.40443  0.46259  0.34479  1.0000
  N   N49       1.0  0.38863  0.47388  0.34650  1.0000
  C   C230      1.0  0.39222  0.49044  0.34423  1.0000
  N   N50       1.0  0.41254  0.49565  0.34009  1.0000
  C   C231      1.0  0.42900  0.48491  0.33833  1.0000
  N   N51       1.0  0.42436  0.46853  0.34083  1.0000
  C   C232      1.0  0.60321  0.54531  0.34259  1.0000
  N   N52       1.0  0.61919  0.53416  0.34543  1.0000
  C   C233      1.0  0.61584  0.51757  0.34546  1.0000
  N   N53       1.0  0.59560  0.51217  0.34308  1.0000
  C   C234      1.0  0.57904  0.52278  0.34026  1.0000
  N   N54       1.0  0.58331  0.53922  0.33998  1.0000
  C   C235      1.0  0.10335  0.96259  0.33745  1.0000
  N   N55       1.0  0.11916  0.97388  0.33574  1.0000
  C   C236      1.0  0.11556  0.99044  0.33801  1.0000
  N   N56       1.0  0.09524  0.99565  0.34216  1.0000
  C   C237      1.0  0.07878  0.98491  0.34392  1.0000
  N   N57       1.0  0.08342  0.96853  0.34141  1.0000
  C   C238      1.0  0.90457  0.04531  0.33964  1.0000
  N   N58       1.0  0.88859  0.03416  0.33680  1.0000
  C   C239      1.0  0.89195  0.01757  0.33677  1.0000
  N   N59       1.0  0.91218  0.01217  0.33913  1.0000
  C   C240      1.0  0.92874  0.02278  0.34195  1.0000
  N   N60       1.0  0.92447  0.03922  0.34224  1.0000
  C   C241      1.0  0.26991  0.08025  0.33907  1.0000
  N   N61       1.0  0.25461  0.06849  0.33679  1.0000
  C   C242      1.0  0.23376  0.07243  0.33761  1.0000
  N   N62       1.0  0.22866  0.08875  0.34057  1.0000
  C   C243      1.0  0.24336  0.10089  0.34186  1.0000
  N   N63       1.0  0.26383  0.09631  0.34117  1.0000
  C   C244      1.0  0.73783  0.92751  0.33952  1.0000
  N   N64       1.0  0.75306  0.93931  0.33663  1.0000
  C   C245      1.0  0.77393  0.93542  0.33683  1.0000
  N   N65       1.0  0.77911  0.91912  0.33980  1.0000
  C   C246      1.0  0.76447  0.90694  0.34166  1.0000
  N   N66       1.0  0.74398  0.91146  0.34159  1.0000
  C   C247      1.0  0.23788  0.58025  0.34318  1.0000
  N   N67       1.0  0.25317  0.56849  0.34545  1.0000
  C   C248      1.0  0.27402  0.57244  0.34463  1.0000
  N   N68       1.0  0.27912  0.58876  0.34166  1.0000
  C   C249      1.0  0.26443  0.60089  0.34040  1.0000
  N   N69       1.0  0.24396  0.59632  0.34108  1.0000
  C   C250      1.0  0.76996  0.42751  0.34271  1.0000
  N   N70       1.0  0.75472  0.43931  0.34560  1.0000
  C   C251      1.0  0.73385  0.43543  0.34539  1.0000
  N   N71       1.0  0.72867  0.41912  0.34242  1.0000
  C   C252      1.0  0.74331  0.40695  0.34056  1.0000
  N   N72       1.0  0.76381  0.41146  0.34063  1.0000
  C   C253      1.0  0.35620  0.31713  0.35140  1.0000
  N   N73       1.0  0.35892  0.33379  0.34766  1.0000
  C   C254      1.0  0.37846  0.34060  0.34127  1.0000
  N   N74       1.0  0.39533  0.33027  0.33864  1.0000
  C   C255      1.0  0.39309  0.31361  0.34105  1.0000
  N   N75       1.0  0.37345  0.30737  0.34758  1.0000
  C   C256      1.0  0.65162  0.69075  0.34994  1.0000
  N   N76       1.0  0.64887  0.67409  0.34574  1.0000
  C   C257      1.0  0.62933  0.66731  0.33912  1.0000
  N   N77       1.0  0.61247  0.67765  0.33674  1.0000
  C   C258      1.0  0.61473  0.69431  0.33961  1.0000
  N   N78       1.0  0.63438  0.70052  0.34634  1.0000
  C   C259      1.0  0.15158  0.81713  0.33086  1.0000
  N   N79       1.0  0.14886  0.83378  0.33459  1.0000
  C   C260      1.0  0.12932  0.84060  0.34096  1.0000
  N   N80       1.0  0.11245  0.83027  0.34359  1.0000
  C   C261      1.0  0.11468  0.81361  0.34119  1.0000
  N   N81       1.0  0.13432  0.80737  0.33467  1.0000
  C   C262      1.0  0.85616  0.19074  0.33229  1.0000
  N   N82       1.0  0.85891  0.17409  0.33649  1.0000
  C   C263      1.0  0.87846  0.16731  0.34310  1.0000
  N   N83       1.0  0.89531  0.17765  0.34547  1.0000
  C   C264      1.0  0.89305  0.19431  0.34258  1.0000
  N   N84       1.0  0.87340  0.20052  0.33587  1.0000
  C   C265      1.0  0.22624  0.24896  0.34314  1.0000
  N   N85       1.0  0.20636  0.25504  0.34261  1.0000
  C   C266      1.0  0.18910  0.24514  0.34366  1.0000
  N   N86       1.0  0.19235  0.22853  0.34544  1.0000
  C   C267      1.0  0.21188  0.22174  0.34648  1.0000
  N   N87       1.0  0.22845  0.23229  0.34520  1.0000
  C   C268      1.0  0.78165  0.75887  0.34305  1.0000
  N   N88       1.0  0.80153  0.75279  0.34242  1.0000
  C   C269      1.0  0.81880  0.76267  0.34347  1.0000
  N   N89       1.0  0.81557  0.77929  0.34534  1.0000
  C   C270      1.0  0.79605  0.78609  0.34649  1.0000
  N   N90       1.0  0.77947  0.77555  0.34521  1.0000
  C   C271      1.0  0.28154  0.74897  0.33910  1.0000
  N   N91       1.0  0.30143  0.75504  0.33963  1.0000
  C   C272      1.0  0.31868  0.74514  0.33858  1.0000
  N   N92       1.0  0.31543  0.72853  0.33679  1.0000
  C   C273      1.0  0.29591  0.72175  0.33576  1.0000
  N   N93       1.0  0.27934  0.73229  0.33704  1.0000
  C   C274      1.0  0.72613  0.25888  0.33921  1.0000
  N   N94       1.0  0.70625  0.25279  0.33983  1.0000
  C   C275      1.0  0.68898  0.26268  0.33878  1.0000
  N   N95       1.0  0.69222  0.27929  0.33691  1.0000
  C   C276      1.0  0.71174  0.28609  0.33577  1.0000
  N   N96       1.0  0.72831  0.27555  0.33706  1.0000
  C   C277      1.0  0.01516  0.30806  0.34226  1.0000
  N   N97       1.0  0.03579  0.30370  0.33941  1.0000
  C   C278      1.0  0.04186  0.28761  0.33663  1.0000
  N   N98       1.0  0.02669  0.27585  0.33700  1.0000
  C   C279      1.0  0.00592  0.27955  0.34004  1.0000
  N   N99       1.0  0.00058  0.29579  0.34261  1.0000
  C   C280      1.0  0.99280  0.69974  0.33998  1.0000
  N   N100      1.0  0.97215  0.70405  0.33730  1.0000
  C   C281      1.0  0.96604  0.72015  0.33497  1.0000
  N   N101      1.0  0.98118  0.73193  0.33559  1.0000
  C   C282      1.0  0.00195  0.72826  0.33847  1.0000
  N   N102      1.0  0.00734  0.71203  0.34060  1.0000
  C   C283      1.0  0.49262  0.80806  0.33999  1.0000
  N   N103      1.0  0.47199  0.80370  0.34280  1.0000
  C   C284      1.0  0.46592  0.78761  0.34556  1.0000
  N   N104      1.0  0.48109  0.77585  0.34520  1.0000
  C   C285      1.0  0.50186  0.77955  0.34220  1.0000
  N   N105      1.0  0.50721  0.79579  0.33964  1.0000
  C   C286      1.0  0.51499  0.19974  0.34226  1.0000
  N   N106      1.0  0.53563  0.20406  0.34493  1.0000
  C   C287      1.0  0.54175  0.22015  0.34728  1.0000
  N   N107      1.0  0.52660  0.23193  0.34665  1.0000
  C   C288      1.0  0.50583  0.22826  0.34377  1.0000
  N   N108      1.0  0.50044  0.21203  0.34164  1.0000
  C   C289      1.0  0.53586  0.96737  0.33903  1.0000
  C   C290      1.0  0.51124  0.99726  0.34007  1.0000
  C   C291      1.0  0.50276  0.98202  0.36899  1.0000
  C   C292      1.0  0.51470  0.96742  0.36763  1.0000
  H   H181      1.0  0.48769  0.98145  0.39267  1.0000
  H   H182      1.0  0.50780  0.95680  0.39022  1.0000
  C   C293      1.0  0.49834  0.01180  0.34548  1.0000
  C   C294      1.0  0.47213  0.04073  0.34413  1.0000
  C   C295      1.0  0.49081  0.04008  0.39536  1.0000
  C   C296      1.0  0.50366  0.02579  0.39918  1.0000
  H   H183      1.0  0.49485  0.05012  0.43341  1.0000
  N   N109      1.0  0.52051  0.02594  0.45540  1.0000
  H   H184      1.0  0.52909  0.01622  0.46490  1.0000
  H   H185      1.0  0.52367  0.03550  0.49269  1.0000
  C   C297      1.0  0.96351  0.48261  0.37252  1.0000
  C   C298      1.0  0.97545  0.49741  0.37447  1.0000
  C   C299      1.0  0.02826  0.51241  0.38730  1.0000
  C   C300      1.0  0.04127  0.52645  0.38686  1.0000
  H   H186      1.0  0.03258  0.50258  0.42645  1.0000
  H   H187      1.0  0.05451  0.52639  0.42577  1.0000
  H   H188      1.0  0.94840  0.48290  0.39569  1.0000
  N   N110      1.0  0.96629  0.51121  0.40886  1.0000
  H   H189      1.0  0.95197  0.51104  0.43159  1.0000
  H   H190      1.0  0.97401  0.52142  0.41662  1.0000
  C   C301      1.0  0.39192  0.05456  0.35634  1.0000
  C   C302      1.0  0.36962  0.05468  0.35911  1.0000
  C   C303      1.0  0.32748  0.08296  0.38882  1.0000
  C   C304      1.0  0.30579  0.08597  0.39121  1.0000
  H   H191      1.0  0.33702  0.09010  0.42831  1.0000
  H   H192      1.0  0.30034  0.09515  0.43231  1.0000
  H   H193      1.0  0.39971  0.04429  0.37847  1.0000
  N   N111      1.0  0.35958  0.04113  0.39178  1.0000
  H   H194      1.0  0.36734  0.03149  0.41219  1.0000
  H   H195      1.0  0.34447  0.04080  0.39898  1.0000
  C   C305      1.0  0.61577  0.95304  0.35829  1.0000
  C   C306      1.0  0.63807  0.95293  0.36113  1.0000
  C   C307      1.0  0.68036  0.92475  0.39132  1.0000
  C   C308      1.0  0.70206  0.92179  0.39310  1.0000
  H   H196      1.0  0.67092  0.91765  0.43139  1.0000
  H   H197      1.0  0.70762  0.91267  0.43437  1.0000
  H   H198      1.0  0.60796  0.96336  0.37955  1.0000
  N   N112      1.0  0.64809  0.96655  0.39295  1.0000
  H   H199      1.0  0.64032  0.97623  0.41281  1.0000
  H   H200      1.0  0.66320  0.96690  0.40016  1.0000
  C   C309      1.0  0.10401  0.56846  0.35282  1.0000
  C   C310      1.0  0.14919  0.56907  0.35195  1.0000
  C   C311      1.0  0.13734  0.58283  0.38087  1.0000
  C   C312      1.0  0.11532  0.58259  0.38051  1.0000
  H   H201      1.0  0.14472  0.59338  0.40182  1.0000
  H   H202      1.0  0.10762  0.59298  0.40134  1.0000
  C   C313      1.0  0.17164  0.57069  0.34998  1.0000
  C   C314      1.0  0.21606  0.57647  0.34289  1.0000
  C   C315      1.0  0.20755  0.56390  0.39770  1.0000
  C   C316      1.0  0.18557  0.56115  0.40426  1.0000
  H   H203      1.0  0.21749  0.55724  0.43781  1.0000
  N   N113      1.0  0.17856  0.54979  0.46450  1.0000
  H   H204      1.0  0.16373  0.54800  0.47505  1.0000
  H   H205      1.0  0.18825  0.54360  0.50225  1.0000
  C   C317      1.0  0.90386  0.43907  0.35020  1.0000
  C   C318      1.0  0.85868  0.43850  0.34916  1.0000
  C   C319      1.0  0.87051  0.42466  0.37715  1.0000
  C   C320      1.0  0.89253  0.42489  0.37686  1.0000
  H   H206      1.0  0.86312  0.41408  0.39760  1.0000
  H   H207      1.0  0.90021  0.41446  0.39730  1.0000
  C   C321      1.0  0.83623  0.43693  0.34770  1.0000
  C   C322      1.0  0.79178  0.43125  0.34181  1.0000
  C   C323      1.0  0.80042  0.44373  0.39685  1.0000
  C   C324      1.0  0.82242  0.44642  0.40284  1.0000
  H   H208      1.0  0.79058  0.45035  0.43757  1.0000
  N   N114      1.0  0.82957  0.45767  0.46341  1.0000
  H   H209      1.0  0.84442  0.45941  0.47365  1.0000
  H   H210      1.0  0.81996  0.46382  0.50173  1.0000
  C   C325      1.0  0.46733  0.10065  0.34611  1.0000
  C   C326      1.0  0.48609  0.13291  0.34543  1.0000
  C   C327      1.0  0.46520  0.13045  0.37450  1.0000
  C   C328      1.0  0.45595  0.11473  0.37385  1.0000
  H   H211      1.0  0.45636  0.14021  0.39645  1.0000
  H   H212      1.0  0.44076  0.11367  0.39535  1.0000
  C   C329      1.0  0.49424  0.14941  0.34630  1.0000
  C   C330      1.0  0.50849  0.18296  0.34180  1.0000
  C   C331      1.0  0.51883  0.17097  0.39467  1.0000
  C   C332      1.0  0.51166  0.15441  0.40009  1.0000
  H   H213      1.0  0.53121  0.17457  0.43389  1.0000
  N   N115      1.0  0.52143  0.14402  0.45851  1.0000
  H   H214      1.0  0.51647  0.13288  0.46877  1.0000
  H   H215      1.0  0.53304  0.14776  0.49588  1.0000
  C   C333      1.0  0.54010  0.90717  0.34299  1.0000
  C   C334      1.0  0.52128  0.87494  0.34181  1.0000
  C   C335      1.0  0.54208  0.87738  0.37204  1.0000
  C   C336      1.0  0.55135  0.89309  0.37169  1.0000
  H   H216      1.0  0.55083  0.86762  0.39470  1.0000
  H   H217      1.0  0.56647  0.89413  0.39416  1.0000
  C   C337      1.0  0.51312  0.85844  0.34263  1.0000
  C   C338      1.0  0.49904  0.82486  0.33904  1.0000
  C   C339      1.0  0.48857  0.83689  0.39116  1.0000
  C   C340      1.0  0.49565  0.85347  0.39612  1.0000
  H   H218      1.0  0.47615  0.83330  0.43020  1.0000
  N   N116      1.0  0.48574  0.86391  0.45387  1.0000
  H   H219      1.0  0.49062  0.87508  0.46378  1.0000
  H   H220      1.0  0.47409  0.86019  0.49105  1.0000
  C   C341      1.0  0.01946  0.60308  0.36399  1.0000
  C   C342      1.0  0.01001  0.61894  0.36691  1.0000
  C   C343      1.0  0.02366  0.66141  0.38976  1.0000
  C   C344      1.0  0.01692  0.67791  0.39076  1.0000
  H   H221      1.0  0.03627  0.65825  0.42882  1.0000
  H   H222      1.0  0.02481  0.68617  0.43040  1.0000
  H   H223      1.0  0.01106  0.59313  0.38644  1.0000
  N   N117      1.0  0.99023  0.62024  0.40059  1.0000
  H   H224      1.0  0.98260  0.61059  0.42188  1.0000
  H   H225      1.0  0.98341  0.63082  0.40853  1.0000
  C   C345      1.0  0.98859  0.40476  0.36830  1.0000
  C   C346      1.0  0.99807  0.38890  0.37138  1.0000
  C   C347      1.0  0.98442  0.34640  0.39277  1.0000
  C   C348      1.0  0.99108  0.32989  0.39332  1.0000
  H   H226      1.0  0.97175  0.34956  0.43153  1.0000
  H   H227      1.0  0.98309  0.32160  0.43241  1.0000
  H   H228      1.0  0.99690  0.41470  0.39130  1.0000
  N   N118      1.0  0.01777  0.38760  0.40591  1.0000
  H   H229      1.0  0.02533  0.39725  0.42772  1.0000
  H   H230      1.0  0.02460  0.37702  0.41380  1.0000
  C   C349      1.0  0.45039  0.49026  0.33553  1.0000
  C   C350      1.0  0.49374  0.50028  0.33596  1.0000
  C   C351      1.0  0.47765  0.51094  0.36646  1.0000
  C   C352      1.0  0.45643  0.50611  0.36529  1.0000
  H   H231      1.0  0.48130  0.52235  0.39152  1.0000
  H   H232      1.0  0.44546  0.51416  0.38974  1.0000
  C   C353      1.0  0.51517  0.50573  0.34147  1.0000
  C   C354      1.0  0.55789  0.51705  0.33992  1.0000
  C   C355      1.0  0.55187  0.50296  0.38958  1.0000
  C   C356      1.0  0.53076  0.49742  0.39349  1.0000
  H   H233      1.0  0.56299  0.49695  0.42697  1.0000
  N   N119      1.0  0.52615  0.48449  0.44842  1.0000
  H   H234      1.0  0.51185  0.48082  0.45801  1.0000
  H   H235      1.0  0.53694  0.47918  0.48464  1.0000
  C   C357      1.0  0.04128  0.97971  0.37830  1.0000
  C   C358      1.0  0.01987  0.98450  0.38069  1.0000
  C   C359      1.0  0.98655  0.01985  0.39027  1.0000
  C   C360      1.0  0.96572  0.02557  0.38980  1.0000
  H   H236      1.0  0.99735  0.02611  0.42825  1.0000
  H   H237      1.0  0.96208  0.03577  0.42720  1.0000
  H   H238      1.0  0.04525  0.96831  0.40245  1.0000
  N   N120      1.0  0.00575  0.97382  0.41709  1.0000
  H   H239      1.0  0.01009  0.96318  0.44114  1.0000
  H   H240      1.0  0.99113  0.97676  0.42520  1.0000
  C   C361      1.0  0.41607  0.43398  0.37560  1.0000
  C   C362      1.0  0.41276  0.41667  0.37721  1.0000
  C   C363      1.0  0.37286  0.38594  0.38882  1.0000
  C   C364      1.0  0.36881  0.36888  0.38813  1.0000
  H   H241      1.0  0.36383  0.39332  0.42920  1.0000
  H   H242      1.0  0.35706  0.36439  0.42812  1.0000
  H   H243      1.0  0.43007  0.43849  0.39853  1.0000
  N   N121      1.0  0.42825  0.40692  0.41113  1.0000
  H   H244      1.0  0.44126  0.41161  0.43403  1.0000
  H   H245      1.0  0.42644  0.39513  0.41858  1.0000
  C   C365      1.0  0.59142  0.57396  0.37155  1.0000
  C   C366      1.0  0.59472  0.59127  0.37302  1.0000
  C   C367      1.0  0.63470  0.62192  0.38589  1.0000
  C   C368      1.0  0.63883  0.63898  0.38556  1.0000
  H   H246      1.0  0.64366  0.61450  0.42633  1.0000
  H   H247      1.0  0.65055  0.64341  0.42587  1.0000
  H   H248      1.0  0.57740  0.56945  0.39443  1.0000
  N   N122      1.0  0.57919  0.60102  0.40661  1.0000
  H   H249      1.0  0.56616  0.59634  0.42927  1.0000
  H   H250      1.0  0.58099  0.61282  0.41400  1.0000
  C   C369      1.0  0.10727  0.94523  0.33588  1.0000
  C   C370      1.0  0.11439  0.91021  0.33775  1.0000
  C   C371      1.0  0.13007  0.92143  0.36589  1.0000
  C   C372      1.0  0.12667  0.93858  0.36399  1.0000
  H   H251      1.0  0.14413  0.91717  0.38982  1.0000
  H   H252      1.0  0.13837  0.94616  0.38670  1.0000
  C   C373      1.0  0.11845  0.89284  0.34495  1.0000
  C   C374      1.0  0.12624  0.85799  0.34415  1.0000
  C   C375      1.0  0.10999  0.86491  0.39673  1.0000
  C   C376      1.0  0.10622  0.88214  0.40016  1.0000
  H   H253      1.0  0.10099  0.85724  0.43553  1.0000
  N   N123      1.0  0.09108  0.88777  0.45694  1.0000
  H   H254      1.0  0.08864  0.89946  0.46597  1.0000
  H   H255      1.0  0.08313  0.88026  0.49506  1.0000
  C   C377      1.0  0.90078  0.06269  0.33937  1.0000
  C   C378      1.0  0.89366  0.09772  0.34150  1.0000
  C   C379      1.0  0.87796  0.08649  0.36934  1.0000
  C   C380      1.0  0.88135  0.06935  0.36732  1.0000
  H   H256      1.0  0.86386  0.09075  0.39292  1.0000
  H   H257      1.0  0.86961  0.06176  0.38949  1.0000
  C   C381      1.0  0.88953  0.11509  0.34830  1.0000
  C   C382      1.0  0.88159  0.14993  0.34676  1.0000
  C   C383      1.0  0.89781  0.14308  0.39975  1.0000
  C   C384      1.0  0.90166  0.12586  0.40356  1.0000
  H   H258      1.0  0.90675  0.15079  0.43857  1.0000
  N   N124      1.0  0.91677  0.12030  0.46072  1.0000
  H   H259      1.0  0.91924  0.10862  0.46996  1.0000
  H   H260      1.0  0.92464  0.12785  0.49885  1.0000
  C   C385      1.0  0.29021  0.56019  0.34576  1.0000
  C   C386      1.0  0.32312  0.53581  0.34528  1.0000
  C   C387      1.0  0.32683  0.55218  0.37415  1.0000
  C   C388      1.0  0.31083  0.56411  0.37345  1.0000
  H   H261      1.0  0.34137  0.55559  0.39681  1.0000
  H   H262      1.0  0.31442  0.57573  0.39551  1.0000
  C   C389      1.0  0.34021  0.52424  0.34883  1.0000
  C   C390      1.0  0.37513  0.50179  0.34648  1.0000
  C   C391      1.0  0.35698  0.49851  0.39813  1.0000
  C   C392      1.0  0.33982  0.50965  0.40255  1.0000
  H   H263      1.0  0.35655  0.48801  0.43641  1.0000
  N   N125      1.0  0.32376  0.50606  0.45957  1.0000
  H   H264      1.0  0.31226  0.51367  0.46947  1.0000
  H   H265      1.0  0.32397  0.49619  0.49689  1.0000
  C   C393      1.0  0.71775  0.44774  0.34713  1.0000
  C   C394      1.0  0.68499  0.47225  0.34754  1.0000
  C   C395      1.0  0.68121  0.45589  0.37629  1.0000
  C   C396      1.0  0.69713  0.44389  0.37516  1.0000
  H   H266      1.0  0.66666  0.45251  0.39904  1.0000
  H   H267      1.0  0.69349  0.43227  0.39704  1.0000
  C   C397      1.0  0.66792  0.48385  0.35086  1.0000
  C   C398      1.0  0.63299  0.50630  0.34793  1.0000
  C   C399      1.0  0.65115  0.50965  0.39938  1.0000
  C   C400      1.0  0.66831  0.49850  0.40411  1.0000
  H   H268      1.0  0.65156  0.52019  0.43732  1.0000
  N   N126      1.0  0.68437  0.50214  0.46103  1.0000
  H   H269      1.0  0.69586  0.49453  0.47113  1.0000
  H   H270      1.0  0.68417  0.51204  0.49808  1.0000
  C   C401      1.0  0.22130  0.04379  0.36501  1.0000
  C   C402      1.0  0.20522  0.03166  0.36779  1.0000
  C   C403      1.0  0.14935  0.02751  0.38490  1.0000
  C   C404      1.0  0.13211  0.01667  0.38490  1.0000
  H   H271      1.0  0.14851  0.03790  0.42395  1.0000
  H   H272      1.0  0.11940  0.01948  0.42407  1.0000
  H   H273      1.0  0.23596  0.04071  0.38751  1.0000
  N   N127      1.0  0.21000  0.01653  0.40180  1.0000
  H   H274      1.0  0.22404  0.01398  0.42357  1.0000
  H   H275      1.0  0.19943  0.00807  0.40999  1.0000
  C   C405      1.0  0.78623  0.96414  0.36339  1.0000
  C   C406      1.0  0.80224  0.97634  0.36576  1.0000
  C   C407      1.0  0.85808  0.98053  0.38280  1.0000
  C   C408      1.0  0.87533  0.99136  0.38304  1.0000
  H   H276      1.0  0.85892  0.97011  0.42158  1.0000
  H   H277      1.0  0.88804  0.98851  0.42208  1.0000
  H   H278      1.0  0.77158  0.96717  0.38613  1.0000
  N   N128      1.0  0.79739  0.99145  0.39973  1.0000
  H   H279      1.0  0.78336  0.99395  0.42169  1.0000
  H   H280      1.0  0.80791  0.99996  0.40772  1.0000
  C   C409      1.0  0.21511  0.20433  0.34776  1.0000
  C   C410      1.0  0.22209  0.16935  0.34723  1.0000
  C   C411      1.0  0.23759  0.18042  0.37864  1.0000
  C   C412      1.0  0.23427  0.19754  0.37795  1.0000
  H   H281      1.0  0.25161  0.17608  0.40262  1.0000
  H   H282      1.0  0.24600  0.20500  0.40156  1.0000
  C   C413      1.0  0.22675  0.15206  0.34886  1.0000
  C   C414      1.0  0.23771  0.11782  0.34379  1.0000
  C   C415      1.0  0.22052  0.12345  0.39535  1.0000
  C   C416      1.0  0.21520  0.14042  0.40106  1.0000
  H   H283      1.0  0.21225  0.11509  0.43288  1.0000
  N   N129      1.0  0.19947  0.14495  0.45780  1.0000
  H   H284      1.0  0.19595  0.15642  0.46812  1.0000
  H   H285      1.0  0.19203  0.13683  0.49404  1.0000
  C   C417      1.0  0.79283  0.80351  0.34781  1.0000
  C   C418      1.0  0.78586  0.83849  0.34721  1.0000
  C   C419      1.0  0.77038  0.82743  0.37891  1.0000
  C   C420      1.0  0.77370  0.81030  0.37825  1.0000
  H   H286      1.0  0.75638  0.83177  0.40305  1.0000
  H   H287      1.0  0.76199  0.80285  0.40204  1.0000
  C   C421      1.0  0.78119  0.85578  0.34873  1.0000
  C   C422      1.0  0.77018  0.89001  0.34354  1.0000
  C   C423      1.0  0.78743  0.88442  0.39479  1.0000
  C   C424      1.0  0.79278  0.86746  0.40056  1.0000
  H   H288      1.0  0.79572  0.89280  0.43208  1.0000
  N   N130      1.0  0.80858  0.86296  0.45704  1.0000
  H   H289      1.0  0.81212  0.85149  0.46742  1.0000
  H   H290      1.0  0.81605  0.87110  0.49305  1.0000
  C   C425      1.0  0.30824  0.69324  0.36516  1.0000
  C   C426      1.0  0.30498  0.67593  0.36800  1.0000
  C   C427      1.0  0.26395  0.64636  0.38555  1.0000
  C   C428      1.0  0.25834  0.62961  0.38682  1.0000
  H   H291      1.0  0.25533  0.65443  0.42356  1.0000
  H   H292      1.0  0.24590  0.62604  0.42577  1.0000
  H   H293      1.0  0.32205  0.69789  0.38936  1.0000
  N   N131      1.0  0.32030  0.66629  0.40408  1.0000
  H   H294      1.0  0.33325  0.67105  0.42722  1.0000
  H   H295      1.0  0.31851  0.65450  0.41199  1.0000
  C   C429      1.0  0.69941  0.31460  0.36537  1.0000
  C   C430      1.0  0.70267  0.33191  0.36824  1.0000
  C   C431      1.0  0.74374  0.36146  0.38539  1.0000
  C   C432      1.0  0.74938  0.37820  0.38670  1.0000
  H   H296      1.0  0.75240  0.35337  0.42314  1.0000
  H   H297      1.0  0.76187  0.38175  0.42541  1.0000
  H   H298      1.0  0.68561  0.30993  0.38976  1.0000
  N   N132      1.0  0.68737  0.34154  0.40462  1.0000
  H   H299      1.0  0.67445  0.33677  0.42792  1.0000
  H   H300      1.0  0.68917  0.35332  0.41259  1.0000
  C   C433      1.0  0.24416  0.25949  0.34182  1.0000
  C   C434      1.0  0.28069  0.28004  0.34539  1.0000
  C   C435      1.0  0.26089  0.28621  0.37166  1.0000
  C   C436      1.0  0.24292  0.27616  0.36903  1.0000
  H   H301      1.0  0.25946  0.29802  0.39539  1.0000
  H   H302      1.0  0.22901  0.28103  0.39084  1.0000
  C   C437      1.0  0.29871  0.29032  0.35649  1.0000
  C   C438      1.0  0.33636  0.30936  0.35836  1.0000
  C   C439      1.0  0.33377  0.29566  0.41609  1.0000
  C   C440      1.0  0.31509  0.28624  0.41781  1.0000
  H   H303      1.0  0.34584  0.29240  0.45793  1.0000
  N   N133      1.0  0.31367  0.27355  0.47746  1.0000
  H   H304      1.0  0.30089  0.26720  0.48451  1.0000
  H   H305      1.0  0.32501  0.27111  0.51926  1.0000
  C   C441      1.0  0.76371  0.74836  0.34166  1.0000
  C   C442      1.0  0.72716  0.72781  0.34492  1.0000
  C   C443      1.0  0.74697  0.72162  0.37095  1.0000
  C   C444      1.0  0.76495  0.73166  0.36848  1.0000
  H   H306      1.0  0.74841  0.70979  0.39437  1.0000
  H   H307      1.0  0.77887  0.72677  0.39008  1.0000
  C   C445      1.0  0.70914  0.71753  0.35577  1.0000
  C   C446      1.0  0.67147  0.69850  0.35710  1.0000
  C   C447      1.0  0.67407  0.71215  0.41521  1.0000
  C   C448      1.0  0.69276  0.72156  0.41718  1.0000
  H   H308      1.0  0.66200  0.71538  0.45711  1.0000
  N   N134      1.0  0.69418  0.73420  0.47716  1.0000
  H   H309      1.0  0.70697  0.74054  0.48438  1.0000
  H   H310      1.0  0.68284  0.73660  0.51901  1.0000
  C   C449      1.0  0.24382  0.75351  0.36851  1.0000
  C   C450      1.0  0.22560  0.76350  0.36877  1.0000
  C   C451      1.0  0.20680  0.80438  0.38133  1.0000
  C   C452      1.0  0.18835  0.81391  0.37960  1.0000
  H   H311      1.0  0.21828  0.80742  0.42651  1.0000
  H   H312      1.0  0.18681  0.82348  0.42402  1.0000
  H   H313      1.0  0.24261  0.74159  0.39069  1.0000
  N   N135      1.0  0.20738  0.75684  0.39990  1.0000
  H   H314      1.0  0.20678  0.74556  0.42207  1.0000
  H   H315      1.0  0.19466  0.76333  0.40569  1.0000
  C   C453      1.0  0.76387  0.25438  0.36838  1.0000
  C   C454      1.0  0.78211  0.24439  0.36879  1.0000
  C   C455      1.0  0.80093  0.20352  0.38242  1.0000
  C   C456      1.0  0.81938  0.19399  0.38094  1.0000
  H   H316      1.0  0.78945  0.20052  0.42770  1.0000
  H   H317      1.0  0.82092  0.18447  0.42563  1.0000
  H   H318      1.0  0.76509  0.26631  0.39026  1.0000
  N   N136      1.0  0.80034  0.25108  0.39965  1.0000
  H   H319      1.0  0.80093  0.26238  0.42151  1.0000
  H   H320      1.0  0.81306  0.24460  0.40553  1.0000
  C   C457      1.0  0.49048  0.24104  0.34296  1.0000
  C   C458      1.0  0.45978  0.26686  0.34237  1.0000
  C   C459      1.0  0.45460  0.25068  0.37025  1.0000
  C   C460      1.0  0.46958  0.23798  0.36959  1.0000
  H   H321      1.0  0.43973  0.24798  0.39187  1.0000
  H   H322      1.0  0.46511  0.22651  0.39105  1.0000
  C   C461      1.0  0.44368  0.27914  0.34400  1.0000
  C   C462      1.0  0.41036  0.30264  0.33907  1.0000
  C   C463      1.0  0.42811  0.30524  0.39398  1.0000
  C   C464      1.0  0.44456  0.29349  0.39951  1.0000
  H   H323      1.0  0.42852  0.31543  0.43463  1.0000
  N   N137      1.0  0.46031  0.29620  0.45945  1.0000
  H   H324      1.0  0.47133  0.28817  0.46957  1.0000
  H   H325      1.0  0.46040  0.30593  0.49790  1.0000
  C   C465      1.0  0.51724  0.76679  0.34158  1.0000
  C   C466      1.0  0.54800  0.74103  0.34125  1.0000
  C   C467      1.0  0.55314  0.75722  0.36902  1.0000
  C   C468      1.0  0.53813  0.76990  0.36822  1.0000
  H   H326      1.0  0.56800  0.75996  0.39063  1.0000
  H   H327      1.0  0.54257  0.78138  0.38959  1.0000
  C   C469      1.0  0.56413  0.72877  0.34293  1.0000
  C   C470      1.0  0.59748  0.70528  0.33784  1.0000
  C   C471      1.0  0.57973  0.70267  0.39277  1.0000
  C   C472      1.0  0.56327  0.71441  0.39838  1.0000
  H   H328      1.0  0.57933  0.69247  0.43331  1.0000
  N   N138      1.0  0.54753  0.71168  0.45832  1.0000
  H   H329      1.0  0.53650  0.71970  0.46849  1.0000
  H   H330      1.0  0.54744  0.70195  0.49671  1.0000
  C   C473      1.0  0.01217  0.75725  0.36708  1.0000
  C   C474      1.0  0.02718  0.77014  0.36980  1.0000
  C   C475      1.0  0.08175  0.77676  0.39429  1.0000
  C   C476      1.0  0.09831  0.78815  0.39547  1.0000
  H   H331      1.0  0.08283  0.76655  0.43462  1.0000
  H   H332      1.0  0.11093  0.78586  0.43620  1.0000
  H   H333      1.0  0.99724  0.75967  0.38871  1.0000
  N   N139      1.0  0.02111  0.78509  0.40249  1.0000
  H   H334      1.0  0.00685  0.78699  0.42346  1.0000
  H   H335      1.0  0.03094  0.79411  0.41004  1.0000
  C   C477      1.0  0.99563  0.25057  0.36834  1.0000
  C   C478      1.0  0.98059  0.23770  0.37095  1.0000
  C   C479      1.0  0.92599  0.23117  0.39529  1.0000
  C   C480      1.0  0.90942  0.21979  0.39652  1.0000
  H   H336      1.0  0.92493  0.24139  0.43558  1.0000
  H   H337      1.0  0.89680  0.22209  0.43725  1.0000
  H   H338      1.0  0.01055  0.24812  0.39001  1.0000
  N   N140      1.0  0.98661  0.22274  0.40360  1.0000
  H   H339      1.0  0.00087  0.22081  0.42459  1.0000
  H   H340      1.0  0.97676  0.21373  0.41111  1.0000
  C   C481      1.0  0.16845  0.25195  0.34252  1.0000
  C   C482      1.0  0.12698  0.26572  0.34042  1.0000
  C   C483      1.0  0.13065  0.24939  0.37004  1.0000
  C   C484      1.0  0.15091  0.24259  0.37019  1.0000
  H   H341      1.0  0.11847  0.24223  0.39245  1.0000
  H   H342      1.0  0.15274  0.23076  0.39287  1.0000
  C   C485      1.0  0.10590  0.27181  0.34178  1.0000
  C   C486      1.0  0.06326  0.28279  0.33594  1.0000
  C   C487      1.0  0.07828  0.29095  0.38980  1.0000
  C   C488      1.0  0.09936  0.28543  0.39576  1.0000
  H   H343      1.0  0.07351  0.30060  0.42925  1.0000
  N   N141      1.0  0.11242  0.29315  0.45464  1.0000
  H   H344      1.0  0.12662  0.28934  0.46511  1.0000
  H   H345      1.0  0.10754  0.30223  0.49207  1.0000
  C   C489      1.0  0.83944  0.75584  0.34221  1.0000
  C   C490      1.0  0.88091  0.74204  0.33977  1.0000
  C   C491      1.0  0.87727  0.75836  0.36949  1.0000
  C   C492      1.0  0.85701  0.76518  0.36981  1.0000
  H   H346      1.0  0.88946  0.76551  0.39184  1.0000
  H   H347      1.0  0.85521  0.77701  0.39255  1.0000
  C   C493      1.0  0.90199  0.73593  0.34085  1.0000
  C   C494      1.0  0.94462  0.72494  0.33444  1.0000
  C   C495      1.0  0.92963  0.71676  0.38835  1.0000
  C   C496      1.0  0.90856  0.72229  0.39458  1.0000
  H   H348      1.0  0.93442  0.70710  0.42764  1.0000
  N   N142      1.0  0.89553  0.71455  0.45350  1.0000
  H   H349      1.0  0.88133  0.71836  0.46416  1.0000
  H   H350      1.0  0.90042  0.70545  0.49077  1.0000
  C   C497      1.0  0.34305  0.76830  0.36928  1.0000
  C   C498      1.0  0.36345  0.77526  0.37271  1.0000
  C   C499      1.0  0.41690  0.76382  0.39515  1.0000
  C   C500      1.0  0.43790  0.76901  0.39681  1.0000
  H   H351      1.0  0.41268  0.75398  0.43443  1.0000
  H   H352      1.0  0.44827  0.76279  0.43695  1.0000
  H   H353      1.0  0.33068  0.77521  0.39166  1.0000
  N   N143      1.0  0.36564  0.79074  0.40706  1.0000
  H   H354      1.0  0.35360  0.79697  0.42870  1.0000
  H   H355      1.0  0.37928  0.79580  0.41519  1.0000
  C   C501      1.0  0.66464  0.23950  0.36969  1.0000
  C   C502      1.0  0.64426  0.23252  0.37330  1.0000
  C   C503      1.0  0.59080  0.24396  0.39615  1.0000
  C   C504      1.0  0.56980  0.23875  0.39809  1.0000
  H   H356      1.0  0.59503  0.25382  0.43525  1.0000
  H   H357      1.0  0.55946  0.24500  0.43824  1.0000
  H   H358      1.0  0.67704  0.23260  0.39203  1.0000
  N   N144      1.0  0.64210  0.21706  0.40777  1.0000
  H   H359      1.0  0.65416  0.21084  0.42936  1.0000
  H   H360      1.0  0.62846  0.21198  0.41605  1.0000
