data_image0
_chemical_formula_structural       C2NC2NHCH3CHC2NC2NHCH3CHC2NC2NHCH3CHC2HC6H3CHC2HC6H3CHC2HC6H3CHC2NC2NHCH3CHC2NC2NHCH3CHC2NC2NHCH3CHC2NC2NHCH3CHC2NC2NHCH3CHC2NC2NHCH3CHC2HC6H3CHC2HC6H3CHC2HC6H3CHC2HC6H3CHC2HC6H3CHC2HC6H3CHC2NC2NHCH3CHC2NC2NHCH3CHC2NC2NHCH3CHC2NC2NHCH3CHC2NC2NHCH3CHC2NC2NHCH3CHC6H3N3C6H3N3C6H3N3C6H3N3C6H3N3C6H3N3C6H3N3C6H3N3C6H3N3C6H3N3C6H3N3C6H3N3C6H3N3C6H3N3C6H3N3C6H3N3C2HC6H3CHC2HC6H3CHC2HC6H3CHC2NC2NHCH3CHC2NC2NHCH3CHC2NC2NHCH3CHC2HC6H3CHC2HC6H3CHC2HC6H3CHC2HC6H3CHC2HC6H3CHC2HC6H3CHC2NC2NHCH3CHC2NC2NHCH3CHC2NC2NHCH3CHC2NC2NHCH3CHC2NC2NHCH3CHC2NC2NHCH3CHC2HC6H3CHC2HC6H3CHC2HC6H3CHC2HC6H3CHC2HC6H3CHC2HC6H3CH
_chemical_formula_sum              "C456 N96 H288"
_cell_length_a       83.2186
_cell_length_b       83.2186
_cell_length_c       15.0038
_cell_angle_alpha    90
_cell_angle_beta     90
_cell_angle_gamma    120

_space_group_name_H-M_alt    "P 1"
_space_group_IT_number       1

loop_
  _space_group_symop_operation_xyz
  'x, y, z'

loop_
  _atom_site_type_symbol
  _atom_site_label
  _atom_site_symmetry_multiplicity
  _atom_site_fract_x
  _atom_site_fract_y
  _atom_site_fract_z
  _atom_site_occupancy
  C   C1        1.0  0.99462  0.14019  0.30273  1.0000
  C   C2        1.0  0.99337  0.12851  0.23063  1.0000
  N   N1        1.0  0.99631  0.11410  0.24691  1.0000
  C   C3        1.0  0.00042  0.10989  0.32807  1.0000
  C   C4        1.0  0.00368  0.06843  0.27650  1.0000
  N   N2        1.0  0.00141  0.08342  0.26931  1.0000
  H   H1        1.0  0.00235  0.06090  0.22037  1.0000
  C   C5        1.0  0.98926  0.13062  0.13665  1.0000
  H   H2        1.0  0.98781  0.14279  0.12572  1.0000
  H   H3        1.0  0.97637  0.11836  0.11629  1.0000
  H   H4        1.0  0.00047  0.13193  0.09398  1.0000
  C   C6        1.0  0.99035  0.15419  0.29368  1.0000
  H   H5        1.0  0.97846  0.15120  0.26440  1.0000
  C   C7        1.0  0.85948  0.85435  0.30265  1.0000
  C   C8        1.0  0.87115  0.86479  0.23052  1.0000
  N   N3        1.0  0.88556  0.88214  0.24683  1.0000
  C   C9        1.0  0.88978  0.89046  0.32799  1.0000
  C   C10       1.0  0.93124  0.93517  0.27644  1.0000
  N   N4        1.0  0.91624  0.91791  0.26924  1.0000
  H   H6        1.0  0.93877  0.94138  0.22030  1.0000
  C   C11       1.0  0.86904  0.85857  0.13653  1.0000
  H   H7        1.0  0.85688  0.84497  0.12558  1.0000
  H   H8        1.0  0.88131  0.85796  0.11614  1.0000
  H   H9        1.0  0.86772  0.86848  0.09390  1.0000
  C   C12       1.0  0.84548  0.83608  0.29353  1.0000
  H   H10       1.0  0.84847  0.82719  0.26417  1.0000
  C   C13       1.0  0.14532  0.00505  0.30254  1.0000
  C   C14       1.0  0.13487  0.00628  0.23043  1.0000
  N   N5        1.0  0.11753  0.00334  0.24675  1.0000
  C   C15       1.0  0.10921  0.99924  0.32793  1.0000
  C   C16       1.0  0.06450  0.99599  0.27643  1.0000
  N   N6        1.0  0.08176  0.99825  0.26921  1.0000
  H   H11       1.0  0.05829  0.99731  0.22030  1.0000
  C   C17       1.0  0.14109  0.01039  0.13644  1.0000
  H   H12       1.0  0.15470  0.01183  0.12548  1.0000
  H   H13       1.0  0.14171  0.02327  0.11606  1.0000
  H   H14       1.0  0.13118  0.99916  0.09380  1.0000
  C   C18       1.0  0.16359  0.00932  0.29343  1.0000
  H   H15       1.0  0.17248  0.02121  0.26408  1.0000
  C   C19       1.0  0.10162  0.33507  0.25934  1.0000
  C   C20       1.0  0.11509  0.35362  0.27837  1.0000
  H   H16       1.0  0.11937  0.36328  0.22827  1.0000
  C   C21       1.0  0.08092  0.30354  0.31454  1.0000
  C   C22       1.0  0.05102  0.26720  0.28805  1.0000
  C   C23       1.0  0.05814  0.27983  0.21595  1.0000
  C   C24       1.0  0.07309  0.29806  0.22805  1.0000
  C   C25       1.0  0.07993  0.31105  0.15760  1.0000
  C   C26       1.0  0.09410  0.32940  0.17310  1.0000
  H   H17       1.0  0.07437  0.30736  0.09501  1.0000
  H   H18       1.0  0.09855  0.33868  0.12146  1.0000
  H   H19       1.0  0.05201  0.27593  0.15448  1.0000
  C   C27       1.0  0.03492  0.25018  0.27731  1.0000
  H   H20       1.0  0.02592  0.24913  0.23061  1.0000
  C   C28       1.0  0.66460  0.76640  0.25957  1.0000
  C   C29       1.0  0.64605  0.76133  0.27861  1.0000
  H   H21       1.0  0.63639  0.75598  0.22852  1.0000
  C   C30       1.0  0.69613  0.77722  0.31473  1.0000
  C   C31       1.0  0.73248  0.78368  0.28816  1.0000
  C   C32       1.0  0.71983  0.77815  0.21611  1.0000
  C   C33       1.0  0.70160  0.77487  0.22823  1.0000
  C   C34       1.0  0.68861  0.76872  0.15780  1.0000
  C   C35       1.0  0.67026  0.76454  0.17333  1.0000
  H   H22       1.0  0.69229  0.76686  0.09519  1.0000
  H   H23       1.0  0.66098  0.75973  0.12167  1.0000
  H   H24       1.0  0.72373  0.77593  0.15460  1.0000
  C   C36       1.0  0.74949  0.78459  0.27737  1.0000
  H   H25       1.0  0.75054  0.77664  0.23066  1.0000
  C   C37       1.0  0.23329  0.89815  0.25955  1.0000
  C   C38       1.0  0.23837  0.88468  0.27858  1.0000
  H   H26       1.0  0.24371  0.88036  0.22846  1.0000
  C   C39       1.0  0.22248  0.91886  0.31473  1.0000
  C   C40       1.0  0.21603  0.94876  0.28821  1.0000
  C   C41       1.0  0.22157  0.94165  0.21615  1.0000
  C   C42       1.0  0.22483  0.92669  0.22824  1.0000
  C   C43       1.0  0.23097  0.91984  0.15780  1.0000
  C   C44       1.0  0.23514  0.90566  0.17330  1.0000
  H   H27       1.0  0.23284  0.92539  0.09520  1.0000
  H   H28       1.0  0.23996  0.90121  0.12165  1.0000
  H   H29       1.0  0.22378  0.94777  0.15464  1.0000
  C   C45       1.0  0.21513  0.96487  0.27747  1.0000
  H   H30       1.0  0.22309  0.97387  0.23077  1.0000
  C   C46       1.0  0.35946  0.12147  0.30059  1.0000
  C   C47       1.0  0.34552  0.11503  0.23352  1.0000
  N   N7        1.0  0.32775  0.10247  0.25625  1.0000
  C   C48       1.0  0.32215  0.09546  0.33948  1.0000
  C   C49       1.0  0.27257  0.06257  0.30396  1.0000
  N   N8        1.0  0.29055  0.07576  0.29118  1.0000
  H   H31       1.0  0.26384  0.05851  0.25028  1.0000
  C   C50       1.0  0.34856  0.12086  0.13882  1.0000
  H   H32       1.0  0.36289  0.13132  0.12442  1.0000
  H   H33       1.0  0.33976  0.12666  0.12136  1.0000
  H   H34       1.0  0.34484  0.10883  0.09654  1.0000
  C   C51       1.0  0.37809  0.13299  0.28254  1.0000
  H   H35       1.0  0.38410  0.12899  0.23714  1.0000
  C   C52       1.0  0.76178  0.64023  0.30033  1.0000
  C   C53       1.0  0.76925  0.65416  0.23328  1.0000
  N   N9        1.0  0.77445  0.67193  0.25604  1.0000
  C   C54       1.0  0.77304  0.67752  0.33930  1.0000
  C   C55       1.0  0.78968  0.72710  0.30386  1.0000
  N   N10       1.0  0.78490  0.70912  0.29105  1.0000
  H   H36       1.0  0.79431  0.73582  0.25017  1.0000
  C   C56       1.0  0.77203  0.65114  0.13855  1.0000
  H   H37       1.0  0.76818  0.63682  0.12412  1.0000
  H   H38       1.0  0.78663  0.65995  0.12105  1.0000
  H   H39       1.0  0.76371  0.65485  0.09632  1.0000
  C   C57       1.0  0.75467  0.62159  0.28223  1.0000
  H   H40       1.0  0.74465  0.61558  0.23697  1.0000
  C   C58       1.0  0.87815  0.23785  0.30057  1.0000
  C   C59       1.0  0.88465  0.23043  0.23343  1.0000
  N   N11       1.0  0.89723  0.22524  0.25614  1.0000
  C   C60       1.0  0.90421  0.22662  0.33941  1.0000
  C   C61       1.0  0.93724  0.21010  0.30372  1.0000
  N   N12       1.0  0.92400  0.21484  0.29100  1.0000
  H   H41       1.0  0.94136  0.20552  0.24997  1.0000
  C   C62       1.0  0.87886  0.22769  0.13868  1.0000
  H   H42       1.0  0.86838  0.23152  0.12430  1.0000
  H   H43       1.0  0.87310  0.21311  0.12100  1.0000
  H   H44       1.0  0.89091  0.23605  0.09654  1.0000
  C   C63       1.0  0.86666  0.24500  0.28254  1.0000
  H   H45       1.0  0.87066  0.25501  0.23716  1.0000
  C   C64       1.0  0.24199  0.45485  0.30057  1.0000
  C   C65       1.0  0.25418  0.45677  0.22970  1.0000
  N   N13       1.0  0.27253  0.46400  0.24786  1.0000
  C   C66       1.0  0.28026  0.46964  0.32979  1.0000
  C   C67       1.0  0.32936  0.48628  0.28162  1.0000
  N   N14       1.0  0.31080  0.47912  0.27312  1.0000
  H   H46       1.0  0.33684  0.48693  0.22630  1.0000
  C   C68       1.0  0.24870  0.45148  0.13557  1.0000
  H   H47       1.0  0.23380  0.44515  0.12482  1.0000
  H   H48       1.0  0.25285  0.44151  0.11469  1.0000
  H   H49       1.0  0.25573  0.46377  0.09336  1.0000
  C   C69       1.0  0.22358  0.44951  0.28680  1.0000
  H   H50       1.0  0.22063  0.45655  0.24238  1.0000
  C   C70       1.0  0.54489  0.78712  0.30037  1.0000
  C   C71       1.0  0.54294  0.79737  0.22954  1.0000
  N   N15       1.0  0.53570  0.80847  0.24773  1.0000
  C   C72       1.0  0.53005  0.81055  0.32968  1.0000
  C   C73       1.0  0.51340  0.84300  0.28166  1.0000
  N   N16       1.0  0.52056  0.83161  0.27311  1.0000
  H   H51       1.0  0.51275  0.84984  0.22638  1.0000
  C   C74       1.0  0.54824  0.79720  0.13539  1.0000
  H   H52       1.0  0.55457  0.78864  0.12460  1.0000
  H   H53       1.0  0.55820  0.81132  0.11453  1.0000
  H   H54       1.0  0.53594  0.79193  0.09319  1.0000
  C   C75       1.0  0.55024  0.77405  0.28655  1.0000
  H   H55       1.0  0.54317  0.76404  0.24226  1.0000
  C   C76       1.0  0.21254  0.75772  0.30035  1.0000
  C   C77       1.0  0.20229  0.74552  0.22952  1.0000
  N   N17       1.0  0.19119  0.72717  0.24770  1.0000
  C   C78       1.0  0.18912  0.71945  0.32964  1.0000
  C   C79       1.0  0.15667  0.67034  0.28160  1.0000
  N   N18       1.0  0.16806  0.68890  0.27305  1.0000
  H   H56       1.0  0.14983  0.66285  0.22631  1.0000
  C   C80       1.0  0.20247  0.75098  0.13537  1.0000
  H   H57       1.0  0.21103  0.76588  0.12459  1.0000
  H   H58       1.0  0.18835  0.74682  0.11447  1.0000
  H   H59       1.0  0.20775  0.74397  0.09318  1.0000
  C   C81       1.0  0.22562  0.77613  0.28653  1.0000
  H   H60       1.0  0.23563  0.77907  0.24226  1.0000
  C   C82       1.0  0.46683  0.26847  0.26012  1.0000
  C   C83       1.0  0.45954  0.24939  0.27674  1.0000
  H   H61       1.0  0.45867  0.24090  0.22516  1.0000
  C   C84       1.0  0.47621  0.29939  0.31914  1.0000
  C   C85       1.0  0.49111  0.33777  0.29441  1.0000
  C   C86       1.0  0.48916  0.32629  0.22096  1.0000
  C   C87       1.0  0.48184  0.30703  0.23239  1.0000
  C   C88       1.0  0.47993  0.29529  0.16036  1.0000
  C   C89       1.0  0.47255  0.27615  0.17418  1.0000
  H   H62       1.0  0.48394  0.30056  0.09748  1.0000
  H   H63       1.0  0.47135  0.26791  0.12108  1.0000
  H   H64       1.0  0.49310  0.33199  0.15865  1.0000
  C   C90       1.0  0.49741  0.35643  0.28202  1.0000
  H   H65       1.0  0.49276  0.36026  0.22962  1.0000
  C   C91       1.0  0.80137  0.53283  0.26024  1.0000
  C   C92       1.0  0.78958  0.54013  0.27688  1.0000
  H   H66       1.0  0.78197  0.54100  0.22530  1.0000
  C   C93       1.0  0.82291  0.52345  0.31923  1.0000
  C   C94       1.0  0.84640  0.50856  0.29447  1.0000
  C   C95       1.0  0.83687  0.51051  0.22103  1.0000
  C   C96       1.0  0.82492  0.51782  0.23248  1.0000
  C   C97       1.0  0.81509  0.51974  0.16046  1.0000
  C   C98       1.0  0.80334  0.52712  0.17430  1.0000
  H   H67       1.0  0.81635  0.51573  0.09758  1.0000
  H   H68       1.0  0.79629  0.52832  0.12120  1.0000
  H   H69       1.0  0.83863  0.50657  0.15871  1.0000
  C   C99       1.0  0.85876  0.50226  0.28205  1.0000
  H   H70       1.0  0.86723  0.50690  0.22962  1.0000
  C   C100      1.0  0.73119  0.19832  0.26012  1.0000
  C   C101      1.0  0.75027  0.21010  0.27672  1.0000
  H   H71       1.0  0.75875  0.21773  0.22515  1.0000
  C   C102      1.0  0.70027  0.17677  0.31916  1.0000
  C   C103      1.0  0.66189  0.15328  0.29446  1.0000
  C   C104      1.0  0.67337  0.16281  0.22100  1.0000
  C   C105      1.0  0.69263  0.17476  0.23242  1.0000
  C   C106      1.0  0.70437  0.18459  0.16038  1.0000
  C   C107      1.0  0.72350  0.19634  0.17419  1.0000
  H   H72       1.0  0.69910  0.18333  0.09750  1.0000
  H   H73       1.0  0.73175  0.20340  0.12108  1.0000
  H   H74       1.0  0.66767  0.16105  0.15869  1.0000
  C   C108      1.0  0.64324  0.14092  0.28207  1.0000
  H   H75       1.0  0.63940  0.13244  0.22964  1.0000
  C   C109      1.0  0.13716  0.52282  0.25950  1.0000
  C   C110      1.0  0.13180  0.53619  0.27537  1.0000
  H   H76       1.0  0.12669  0.54033  0.22351  1.0000
  C   C111      1.0  0.14857  0.50299  0.31985  1.0000
  C   C112      1.0  0.15906  0.47592  0.29692  1.0000
  C   C113      1.0  0.15308  0.48210  0.22295  1.0000
  C   C114      1.0  0.14762  0.49556  0.23348  1.0000
  C   C115      1.0  0.14142  0.50184  0.16095  1.0000
  C   C116      1.0  0.13616  0.51531  0.17392  1.0000
  H   H77       1.0  0.14063  0.49662  0.09830  1.0000
  H   H78       1.0  0.13162  0.51960  0.12046  1.0000
  H   H79       1.0  0.15271  0.47678  0.16087  1.0000
  C   C117      1.0  0.16544  0.46360  0.28533  1.0000
  H   H80       1.0  0.17352  0.46533  0.23298  1.0000
  C   C118      1.0  0.47689  0.61430  0.25930  1.0000
  C   C119      1.0  0.46353  0.59557  0.27513  1.0000
  H   H81       1.0  0.45939  0.58632  0.22323  1.0000
  C   C120      1.0  0.49671  0.64554  0.31974  1.0000
  C   C121      1.0  0.52377  0.68310  0.29690  1.0000
  C   C122      1.0  0.51760  0.67095  0.22291  1.0000
  C   C123      1.0  0.50414  0.65203  0.23338  1.0000
  C   C124      1.0  0.49786  0.63956  0.16081  1.0000
  C   C125      1.0  0.48440  0.62082  0.17374  1.0000
  H   H82       1.0  0.50308  0.64399  0.09818  1.0000
  H   H83       1.0  0.48012  0.61201  0.12026  1.0000
  H   H84       1.0  0.52292  0.67592  0.16083  1.0000
  C   C126      1.0  0.53609  0.70181  0.28534  1.0000
  H   H85       1.0  0.53437  0.70817  0.23298  1.0000
  C   C127      1.0  0.38538  0.86251  0.25930  1.0000
  C   C128      1.0  0.40412  0.86788  0.27513  1.0000
  H   H86       1.0  0.41336  0.87300  0.22325  1.0000
  C   C129      1.0  0.35415  0.85108  0.31975  1.0000
  C   C130      1.0  0.31659  0.84059  0.29692  1.0000
  C   C131      1.0  0.32873  0.84656  0.22291  1.0000
  C   C132      1.0  0.34765  0.85202  0.23338  1.0000
  C   C133      1.0  0.36012  0.85822  0.16081  1.0000
  C   C134      1.0  0.37886  0.86350  0.17374  1.0000
  H   H87       1.0  0.35569  0.85900  0.09818  1.0000
  H   H88       1.0  0.38768  0.86803  0.12025  1.0000
  H   H89       1.0  0.32377  0.84692  0.16085  1.0000
  C   C135      1.0  0.29788  0.83420  0.28537  1.0000
  H   H90       1.0  0.29152  0.82612  0.23303  1.0000
  C   C136      1.0  0.54445  0.13463  0.30386  1.0000
  C   C137      1.0  0.53800  0.14145  0.23368  1.0000
  N   N19       1.0  0.52498  0.14626  0.25238  1.0000
  C   C138      1.0  0.51754  0.14508  0.33429  1.0000
  C   C139      1.0  0.48438  0.16083  0.28656  1.0000
  N   N20       1.0  0.49761  0.15597  0.27804  1.0000
  H   H91       1.0  0.48074  0.16549  0.23137  1.0000
  C   C140      1.0  0.54421  0.14389  0.13958  1.0000
  H   H92       1.0  0.55521  0.14063  0.12837  1.0000
  H   H93       1.0  0.54946  0.15828  0.11962  1.0000
  H   H94       1.0  0.53247  0.13491  0.09694  1.0000
  C   C141      1.0  0.55578  0.12720  0.28853  1.0000
  H   H95       1.0  0.55200  0.11757  0.24128  1.0000
  C   C142      1.0  0.58995  0.45520  0.30388  1.0000
  C   C143      1.0  0.60321  0.46168  0.23370  1.0000
  N   N21       1.0  0.62104  0.47471  0.25239  1.0000
  C   C144      1.0  0.62729  0.48213  0.33431  1.0000
  C   C145      1.0  0.67619  0.51532  0.28658  1.0000
  N   N22       1.0  0.65812  0.50209  0.27807  1.0000
  H   H96       1.0  0.68450  0.51897  0.23140  1.0000
  C   C146      1.0  0.59944  0.45548  0.13958  1.0000
  H   H97       1.0  0.58519  0.44447  0.12836  1.0000
  H   H98       1.0  0.60859  0.45025  0.11955  1.0000
  H   H99       1.0  0.60218  0.46722  0.09699  1.0000
  C   C147      1.0  0.57118  0.44388  0.28854  1.0000
  H   H100      1.0  0.56534  0.44768  0.24132  1.0000
  C   C148      1.0  0.86506  0.40976  0.30400  1.0000
  C   C149      1.0  0.85824  0.39649  0.23381  1.0000
  N   N23       1.0  0.85343  0.37866  0.25248  1.0000
  C   C150      1.0  0.85460  0.37240  0.33439  1.0000
  C   C151      1.0  0.83887  0.32350  0.28659  1.0000
  N   N24       1.0  0.84372  0.34158  0.27810  1.0000
  H   H101      1.0  0.83422  0.31520  0.23138  1.0000
  C   C152      1.0  0.85581  0.40027  0.13971  1.0000
  H   H102      1.0  0.85906  0.41452  0.12850  1.0000
  H   H103      1.0  0.84142  0.39114  0.11972  1.0000
  H   H104      1.0  0.86479  0.39752  0.09708  1.0000
  C   C153      1.0  0.87249  0.42853  0.28867  1.0000
  H   H105      1.0  0.88211  0.43437  0.24135  1.0000
  C   C154      1.0  0.95190  0.51178  0.29961  1.0000
  C   C155      1.0  0.96493  0.51815  0.22834  1.0000
  N   N25       1.0  0.98325  0.52884  0.24771  1.0000
  C   C156      1.0  0.99022  0.53416  0.33112  1.0000
  C   C157      1.0  0.04018  0.55780  0.28635  1.0000
  N   N26       1.0  0.02152  0.54895  0.27619  1.0000
  H   H106      1.0  0.04818  0.56024  0.23072  1.0000
  C   C158      1.0  0.96045  0.51401  0.13248  1.0000
  H   H107      1.0  0.94559  0.50628  0.11928  1.0000
  H   H108      1.0  0.96656  0.50592  0.10772  1.0000
  H   H109      1.0  0.96629  0.52698  0.09509  1.0000
  C   C159      1.0  0.93339  0.49876  0.28724  1.0000
  H   H110      1.0  0.93027  0.48778  0.24919  1.0000
  C   C160      1.0  0.48794  0.44008  0.29984  1.0000
  C   C161      1.0  0.48157  0.44673  0.22855  1.0000
  N   N27       1.0  0.47087  0.45436  0.24791  1.0000
  C   C162      1.0  0.46554  0.45599  0.33130  1.0000
  C   C163      1.0  0.44189  0.48231  0.28650  1.0000
  N   N28       1.0  0.45076  0.47251  0.27635  1.0000
  H   H111      1.0  0.43946  0.48787  0.23086  1.0000
  C   C164      1.0  0.48571  0.44640  0.13269  1.0000
  H   H112      1.0  0.49344  0.43927  0.11950  1.0000
  H   H113      1.0  0.49379  0.46059  0.10795  1.0000
  H   H114      1.0  0.47274  0.43926  0.09529  1.0000
  C   C165      1.0  0.50096  0.43459  0.28744  1.0000
  H   H115      1.0  0.51193  0.44244  0.24941  1.0000
  C   C166      1.0  0.55960  0.04778  0.29970  1.0000
  C   C167      1.0  0.55294  0.03475  0.22844  1.0000
  N   N29       1.0  0.54531  0.01642  0.24785  1.0000
  C   C168      1.0  0.54367  0.00947  0.33126  1.0000
  C   C169      1.0  0.51737  0.95950  0.28656  1.0000
  N   N30       1.0  0.52716  0.97816  0.27637  1.0000
  H   H116      1.0  0.51180  0.95150  0.23096  1.0000
  C   C170      1.0  0.55328  0.03921  0.13257  1.0000
  H   H117      1.0  0.56041  0.05407  0.11934  1.0000
  H   H118      1.0  0.53908  0.03310  0.10781  1.0000
  H   H119      1.0  0.56041  0.03337  0.09521  1.0000
  C   C171      1.0  0.56510  0.06629  0.28723  1.0000
  H   H120      1.0  0.55725  0.06942  0.24923  1.0000
  C   C172      1.0  0.01655  0.99924  0.33208  1.0000
  C   C173      1.0  0.99916  0.98267  0.33111  1.0000
  C   C174      1.0  0.98244  0.98313  0.33202  1.0000
  C   C175      1.0  0.98326  0.00052  0.33112  1.0000
  C   C176      1.0  0.00043  0.01723  0.33208  1.0000
  C   C177      1.0  0.01700  0.01641  0.33114  1.0000
  H   H121      1.0  0.97121  0.00100  0.32964  1.0000
  H   H122      1.0  0.02954  0.02846  0.32966  1.0000
  H   H123      1.0  0.99867  0.97013  0.32961  1.0000
  N   N31       1.0  0.03264  0.99947  0.33016  1.0000
  N   N32       1.0  0.96659  0.96704  0.33014  1.0000
  N   N33       1.0  0.00020  0.03309  0.33020  1.0000
  C   C178      1.0  0.98118  0.20128  0.33828  1.0000
  C   C179      1.0  0.98223  0.18494  0.33106  1.0000
  C   C180      1.0  0.99958  0.18572  0.32410  1.0000
  C   C181      1.0  0.01596  0.20324  0.32422  1.0000
  C   C182      1.0  0.01517  0.21977  0.32685  1.0000
  C   C183      1.0  0.99771  0.21863  0.33494  1.0000
  H   H124      1.0  0.02862  0.20398  0.32067  1.0000
  H   H125      1.0  0.99703  0.23055  0.33955  1.0000
  H   H126      1.0  0.97026  0.17237  0.33472  1.0000
  N   N34       1.0  0.96466  0.19994  0.34665  1.0000
  N   N35       1.0  0.00129  0.17065  0.32326  1.0000
  N   N36       1.0  0.03076  0.23611  0.32772  1.0000
  C   C184      1.0  0.79843  0.77982  0.33822  1.0000
  C   C185      1.0  0.81476  0.79721  0.33110  1.0000
  C   C186      1.0  0.81396  0.81376  0.32396  1.0000
  C   C187      1.0  0.79644  0.81262  0.32413  1.0000
  C   C188      1.0  0.77991  0.79528  0.32680  1.0000
  C   C189      1.0  0.78107  0.77897  0.33487  1.0000
  H   H127      1.0  0.79567  0.82452  0.32061  1.0000
  H   H128      1.0  0.76916  0.76637  0.33952  1.0000
  H   H129      1.0  0.82734  0.79783  0.33463  1.0000
  N   N37       1.0  0.79979  0.76465  0.34661  1.0000
  N   N38       1.0  0.82902  0.83056  0.32319  1.0000
  N   N39       1.0  0.76357  0.79452  0.32773  1.0000
  C   C190      1.0  0.21987  0.01858  0.33811  1.0000
  C   C191      1.0  0.20247  0.01750  0.33088  1.0000
  C   C192      1.0  0.18592  0.00014  0.32397  1.0000
  C   C193      1.0  0.18708  0.98377  0.32416  1.0000
  C   C194      1.0  0.20442  0.98460  0.32682  1.0000
  C   C195      1.0  0.22072  0.00207  0.33484  1.0000
  H   H130      1.0  0.17518  0.97110  0.32066  1.0000
  H   H131      1.0  0.23333  0.00277  0.33948  1.0000
  H   H132      1.0  0.20184  0.02945  0.33450  1.0000
  N   N40       1.0  0.23503  0.03511  0.34647  1.0000
  N   N41       1.0  0.16912  0.99840  0.32313  1.0000
  N   N42       1.0  0.20519  0.96901  0.32775  1.0000
  C   C196      1.0  0.16723  0.43812  0.33854  1.0000
  C   C197      1.0  0.15431  0.41897  0.34202  1.0000
  C   C198      1.0  0.16031  0.40576  0.34128  1.0000
  C   C199      1.0  0.17948  0.41200  0.33618  1.0000
  C   C200      1.0  0.19263  0.43112  0.33334  1.0000
  C   C201      1.0  0.18635  0.44405  0.33646  1.0000
  H   H133      1.0  0.18393  0.40253  0.33458  1.0000
  H   H134      1.0  0.19579  0.45797  0.33750  1.0000
  H   H135      1.0  0.14042  0.41460  0.34290  1.0000
  N   N43       1.0  0.16134  0.45028  0.34062  1.0000
  N   N44       1.0  0.14840  0.38764  0.33790  1.0000
  N   N45       1.0  0.21062  0.43664  0.33391  1.0000
  C   C202      1.0  0.56158  0.72907  0.33856  1.0000
  C   C203      1.0  0.58073  0.73529  0.34210  1.0000
  C   C204      1.0  0.59394  0.75448  0.34126  1.0000
  C   C205      1.0  0.58772  0.76744  0.33614  1.0000
  C   C206      1.0  0.56860  0.76147  0.33330  1.0000
  C   C207      1.0  0.55566  0.74226  0.33641  1.0000
  H   H136      1.0  0.59720  0.78135  0.33452  1.0000
  H   H137      1.0  0.54175  0.73781  0.33740  1.0000
  H   H138      1.0  0.58508  0.72576  0.34299  1.0000
  N   N46       1.0  0.54941  0.71102  0.34064  1.0000
  N   N47       1.0  0.61206  0.76069  0.33799  1.0000
  N   N48       1.0  0.56309  0.77395  0.33375  1.0000
  C   C208      1.0  0.27062  0.83245  0.33856  1.0000
  C   C209      1.0  0.26441  0.84538  0.34210  1.0000
  C   C210      1.0  0.24522  0.83941  0.34134  1.0000
  C   C211      1.0  0.23225  0.82024  0.33614  1.0000
  C   C212      1.0  0.23821  0.80708  0.33324  1.0000
  C   C213      1.0  0.25742  0.81333  0.33638  1.0000
  H   H139      1.0  0.21835  0.81581  0.33453  1.0000
  H   H140      1.0  0.26187  0.80388  0.33737  1.0000
  H   H141      1.0  0.27394  0.85927  0.34303  1.0000
  N   N49       1.0  0.28867  0.83832  0.34062  1.0000
  N   N50       1.0  0.23901  0.85133  0.33801  1.0000
  N   N51       1.0  0.22573  0.78909  0.33370  1.0000
  C   C214      1.0  0.43822  0.16752  0.32737  1.0000
  C   C215      1.0  0.41914  0.15440  0.32331  1.0000
  C   C216      1.0  0.40575  0.16015  0.32345  1.0000
  C   C217      1.0  0.41173  0.17928  0.32833  1.0000
  C   C218      1.0  0.43079  0.19261  0.33164  1.0000
  C   C219      1.0  0.44392  0.18658  0.32925  1.0000
  H   H142      1.0  0.40212  0.18354  0.32949  1.0000
  H   H143      1.0  0.45780  0.19615  0.32857  1.0000
  H   H144      1.0  0.41495  0.14055  0.32267  1.0000
  N   N52       1.0  0.45057  0.16188  0.32577  1.0000
  N   N53       1.0  0.38768  0.14808  0.32679  1.0000
  N   N54       1.0  0.43610  0.21054  0.33074  1.0000
  C   C220      1.0  0.72905  0.56147  0.32739  1.0000
  C   C221      1.0  0.73503  0.58056  0.32323  1.0000
  C   C222      1.0  0.75417  0.59393  0.32324  1.0000
  C   C223      1.0  0.76731  0.58795  0.32829  1.0000
  C   C224      1.0  0.76157  0.56889  0.33176  1.0000
  C   C225      1.0  0.74241  0.55577  0.32938  1.0000
  H   H145      1.0  0.78118  0.59756  0.32941  1.0000
  H   H146      1.0  0.73810  0.54189  0.32877  1.0000
  H   H147      1.0  0.72536  0.58474  0.32246  1.0000
  N   N55       1.0  0.71106  0.54912  0.32579  1.0000
  N   N56       1.0  0.76017  0.61200  0.32651  1.0000
  N   N57       1.0  0.77419  0.56358  0.33090  1.0000
  C   C226      1.0  0.83216  0.27064  0.32735  1.0000
  C   C227      1.0  0.84526  0.26466  0.32325  1.0000
  C   C228      1.0  0.83950  0.24552  0.32341  1.0000
  C   C229      1.0  0.82037  0.23238  0.32830  1.0000
  C   C230      1.0  0.80705  0.23812  0.33161  1.0000
  C   C231      1.0  0.81310  0.25729  0.32924  1.0000
  H   H148      1.0  0.81610  0.21850  0.32947  1.0000
  H   H149      1.0  0.80353  0.26160  0.32858  1.0000
  H   H150      1.0  0.85912  0.27431  0.32265  1.0000
  N   N58       1.0  0.83781  0.28863  0.32577  1.0000
  N   N59       1.0  0.85156  0.23951  0.32675  1.0000
  N   N60       1.0  0.78912  0.22550  0.33074  1.0000
  C   C232      1.0  0.09716  0.58634  0.33038  1.0000
  C   C233      1.0  0.10951  0.60559  0.32633  1.0000
  C   C234      1.0  0.12890  0.61271  0.32615  1.0000
  C   C235      1.0  0.13583  0.60031  0.32599  1.0000
  C   C236      1.0  0.12364  0.58097  0.33078  1.0000
  C   C237      1.0  0.10430  0.57413  0.33137  1.0000
  H   H151      1.0  0.14987  0.60541  0.32427  1.0000
  H   H152      1.0  0.09529  0.56011  0.33085  1.0000
  H   H153      1.0  0.10438  0.61449  0.32394  1.0000
  N   N61       1.0  0.07905  0.57989  0.32764  1.0000
  N   N62       1.0  0.14063  0.63084  0.32287  1.0000
  N   N63       1.0  0.13046  0.56954  0.32872  1.0000
  C   C238      1.0  0.41336  0.51075  0.33040  1.0000
  C   C239      1.0  0.39411  0.50386  0.32633  1.0000
  C   C240      1.0  0.38700  0.51613  0.32607  1.0000
  C   C241      1.0  0.39941  0.53547  0.32579  1.0000
  C   C242      1.0  0.41874  0.54261  0.33056  1.0000
  C   C243      1.0  0.42557  0.53010  0.33126  1.0000
  H   H154      1.0  0.39431  0.54441  0.32408  1.0000
  H   H155      1.0  0.43959  0.53510  0.33077  1.0000
  H   H156      1.0  0.38521  0.48983  0.32405  1.0000
  N   N64       1.0  0.41980  0.49908  0.32775  1.0000
  N   N65       1.0  0.36887  0.50974  0.32285  1.0000
  N   N66       1.0  0.43017  0.56085  0.32847  1.0000
  C   C244      1.0  0.48894  0.90253  0.33052  1.0000
  C   C245      1.0  0.49582  0.89017  0.32649  1.0000
  C   C246      1.0  0.48355  0.87078  0.32624  1.0000
  C   C247      1.0  0.46421  0.86386  0.32596  1.0000
  C   C248      1.0  0.45708  0.87607  0.33072  1.0000
  C   C249      1.0  0.46959  0.89540  0.33140  1.0000
  H   H157      1.0  0.45527  0.84983  0.32418  1.0000
  H   H158      1.0  0.46459  0.90442  0.33084  1.0000
  H   H159      1.0  0.50986  0.89530  0.32418  1.0000
  N   N67       1.0  0.50060  0.92064  0.32783  1.0000
  N   N68       1.0  0.48994  0.85905  0.32297  1.0000
  N   N69       1.0  0.43884  0.86926  0.32854  1.0000
  C   C250      1.0  0.58586  0.09741  0.32660  1.0000
  C   C251      1.0  0.60519  0.10946  0.32960  1.0000
  C   C252      1.0  0.61276  0.12891  0.33268  1.0000
  C   C253      1.0  0.60073  0.13626  0.33624  1.0000
  C   C254      1.0  0.58132  0.12444  0.33247  1.0000
  C   C255      1.0  0.57406  0.10504  0.32971  1.0000
  H   H160      1.0  0.60614  0.15033  0.33965  1.0000
  H   H161      1.0  0.55999  0.09638  0.33167  1.0000
  H   H162      1.0  0.61387  0.10404  0.32954  1.0000
  N   N70       1.0  0.57942  0.07924  0.32699  1.0000
  N   N71       1.0  0.63095  0.14035  0.33596  1.0000
  N   N72       1.0  0.57021  0.13161  0.33660  1.0000
  C   C256      1.0  0.51130  0.41381  0.32671  1.0000
  C   C257      1.0  0.50402  0.39448  0.32960  1.0000
  C   C258      1.0  0.51589  0.38691  0.33258  1.0000
  C   C259      1.0  0.53528  0.39893  0.33610  1.0000
  C   C260      1.0  0.54287  0.41834  0.33238  1.0000
  C   C261      1.0  0.53074  0.42561  0.32970  1.0000
  H   H163      1.0  0.54394  0.39352  0.33952  1.0000
  H   H164      1.0  0.53615  0.43968  0.33174  1.0000
  H   H165      1.0  0.48993  0.38581  0.32958  1.0000
  N   N73       1.0  0.49958  0.42026  0.32712  1.0000
  N   N74       1.0  0.50914  0.36872  0.33587  1.0000
  N   N75       1.0  0.56115  0.42944  0.33654  1.0000
  C   C262      1.0  0.90227  0.48840  0.32657  1.0000
  C   C263      1.0  0.89022  0.49568  0.32954  1.0000
  C   C264      1.0  0.87077  0.48380  0.33265  1.0000
  C   C265      1.0  0.86342  0.46441  0.33625  1.0000
  C   C266      1.0  0.87524  0.45683  0.33250  1.0000
  C   C267      1.0  0.89464  0.46897  0.32972  1.0000
  H   H166      1.0  0.84935  0.45575  0.33970  1.0000
  H   H167      1.0  0.90331  0.46357  0.33170  1.0000
  H   H168      1.0  0.89563  0.50977  0.32946  1.0000
  N   N76       1.0  0.92044  0.50013  0.32696  1.0000
  N   N77       1.0  0.85933  0.49054  0.33594  1.0000
  N   N78       1.0  0.86808  0.43855  0.33670  1.0000
  C   C268      1.0  0.00194  0.12116  0.40211  1.0000
  C   C269      1.0  0.99893  0.13623  0.38836  1.0000
  H   H169      1.0  0.99957  0.14419  0.44188  1.0000
  C   C270      1.0  0.00304  0.09450  0.33938  1.0000
  C   C271      1.0  0.00805  0.06361  0.35972  1.0000
  C   C272      1.0  0.00997  0.07493  0.43389  1.0000
  C   C273      1.0  0.00737  0.09038  0.42495  1.0000
  C   C274      1.0  0.00893  0.10171  0.49828  1.0000
  C   C275      1.0  0.00618  0.11694  0.48701  1.0000
  H   H170      1.0  0.01199  0.09892  0.56043  1.0000
  H   H171      1.0  0.00729  0.12491  0.54121  1.0000
  H   H172      1.0  0.01312  0.07181  0.49521  1.0000
  C   C276      1.0  0.01086  0.04864  0.36904  1.0000
  H   H173      1.0  0.02081  0.04981  0.40989  1.0000
  C   C277      1.0  0.87850  0.88071  0.40203  1.0000
  C   C278      1.0  0.86344  0.86263  0.38826  1.0000
  H   H174      1.0  0.85548  0.85530  0.44178  1.0000
  C   C279      1.0  0.90517  0.90847  0.33931  1.0000
  C   C280      1.0  0.93607  0.94436  0.35967  1.0000
  C   C281      1.0  0.92475  0.93496  0.43385  1.0000
  C   C282      1.0  0.90929  0.91691  0.42489  1.0000
  C   C283      1.0  0.89797  0.90714  0.49822  1.0000
  C   C284      1.0  0.88273  0.88916  0.48693  1.0000
  H   H175      1.0  0.90076  0.91299  0.56037  1.0000
  H   H176      1.0  0.87477  0.88231  0.54113  1.0000
  H   H177      1.0  0.92787  0.94123  0.49516  1.0000
  C   C285      1.0  0.95103  0.96214  0.36898  1.0000
  H   H178      1.0  0.94986  0.97092  0.40986  1.0000
  C   C286      1.0  0.11897  0.99772  0.40196  1.0000
  C   C287      1.0  0.13704  0.00073  0.38817  1.0000
  H   H179      1.0  0.14438  0.00010  0.44168  1.0000
  C   C288      1.0  0.09121  0.99663  0.33926  1.0000
  C   C289      1.0  0.05531  0.99162  0.35966  1.0000
  C   C290      1.0  0.06472  0.98971  0.43383  1.0000
  C   C291      1.0  0.08277  0.99231  0.42486  1.0000
  C   C292      1.0  0.09254  0.99075  0.49817  1.0000
  C   C293      1.0  0.11052  0.99350  0.48687  1.0000
  H   H180      1.0  0.08670  0.98770  0.56034  1.0000
  H   H181      1.0  0.11738  0.99239  0.54106  1.0000
  H   H182      1.0  0.05845  0.98656  0.49516  1.0000
  C   C294      1.0  0.03754  0.98881  0.36900  1.0000
  H   H183      1.0  0.02875  0.97887  0.40992  1.0000
  C   C295      1.0  0.12198  0.35922  0.36594  1.0000
  C   C296      1.0  0.11517  0.34553  0.43428  1.0000
  N   N79       1.0  0.10218  0.32781  0.41304  1.0000
  C   C297      1.0  0.09510  0.32201  0.33010  1.0000
  C   C298      1.0  0.05973  0.27341  0.37192  1.0000
  N   N80       1.0  0.07396  0.29103  0.38221  1.0000
  H   H184      1.0  0.05498  0.26511  0.42707  1.0000
  C   C299      1.0  0.12091  0.34882  0.52908  1.0000
  H   H185      1.0  0.13178  0.36304  0.54231  1.0000
  H   H186      1.0  0.12615  0.33964  0.54852  1.0000
  H   H187      1.0  0.10895  0.34577  0.57068  1.0000
  C   C300      1.0  0.13347  0.37792  0.38309  1.0000
  H   H188      1.0  0.12957  0.38390  0.42907  1.0000
  C   C301      1.0  0.64046  0.76264  0.36619  1.0000
  C   C302      1.0  0.65415  0.76952  0.43450  1.0000
  N   N81       1.0  0.67186  0.77423  0.41324  1.0000
  C   C303      1.0  0.67766  0.77294  0.33030  1.0000
  C   C304      1.0  0.72626  0.78616  0.37207  1.0000
  N   N82       1.0  0.70864  0.78277  0.38239  1.0000
  H   H189      1.0  0.73457  0.78973  0.42717  1.0000
  C   C305      1.0  0.65088  0.77201  0.52928  1.0000
  H   H190      1.0  0.63667  0.76867  0.54254  1.0000
  H   H191      1.0  0.66006  0.78643  0.54862  1.0000
  H   H192      1.0  0.65394  0.76312  0.57094  1.0000
  C   C306      1.0  0.62177  0.75548  0.38338  1.0000
  H   H193      1.0  0.61577  0.74560  0.42933  1.0000
  C   C307      1.0  0.23706  0.87777  0.36616  1.0000
  C   C308      1.0  0.23019  0.88459  0.43448  1.0000
  N   N83       1.0  0.22547  0.89759  0.41324  1.0000
  C   C309      1.0  0.22675  0.90467  0.33030  1.0000
  C   C310      1.0  0.21354  0.94006  0.37209  1.0000
  N   N84       1.0  0.21693  0.92582  0.38240  1.0000
  H   H194      1.0  0.21000  0.94481  0.42725  1.0000
  C   C311      1.0  0.22771  0.87883  0.52927  1.0000
  H   H195      1.0  0.23104  0.86795  0.54250  1.0000
  H   H196      1.0  0.21329  0.87360  0.54865  1.0000
  H   H197      1.0  0.23660  0.89078  0.57091  1.0000
  C   C312      1.0  0.24423  0.86625  0.38330  1.0000
  H   H198      1.0  0.25411  0.87014  0.42929  1.0000
  C   C313      1.0  0.33551  0.10152  0.40884  1.0000
  C   C314      1.0  0.35411  0.11454  0.38827  1.0000
  H   H199      1.0  0.36395  0.11864  0.43748  1.0000
  C   C315      1.0  0.30349  0.08203  0.35705  1.0000
  C   C316      1.0  0.26630  0.05435  0.38882  1.0000
  C   C317      1.0  0.27946  0.06073  0.45889  1.0000
  C   C318      1.0  0.29811  0.07455  0.44417  1.0000
  C   C319      1.0  0.31145  0.08080  0.51303  1.0000
  C   C320      1.0  0.33001  0.09419  0.49550  1.0000
  H   H200      1.0  0.30782  0.07552  0.57612  1.0000
  H   H201      1.0  0.33949  0.09837  0.54620  1.0000
  H   H202      1.0  0.27552  0.05511  0.52134  1.0000
  C   C321      1.0  0.24826  0.04010  0.40451  1.0000
  H   H203      1.0  0.24596  0.03195  0.45728  1.0000
  C   C322      1.0  0.76576  0.66416  0.40865  1.0000
  C   C323      1.0  0.76019  0.64556  0.38803  1.0000
  H   H204      1.0  0.75449  0.63573  0.43725  1.0000
  C   C324      1.0  0.77825  0.69618  0.35691  1.0000
  C   C325      1.0  0.78771  0.73335  0.38874  1.0000
  C   C326      1.0  0.78096  0.72019  0.45881  1.0000
  C   C327      1.0  0.77616  0.70155  0.44406  1.0000
  C   C328      1.0  0.76909  0.68820  0.51291  1.0000
  C   C329      1.0  0.76394  0.66965  0.49534  1.0000
  H   H205      1.0  0.76745  0.69183  0.57602  1.0000
  H   H206      1.0  0.75866  0.66016  0.54604  1.0000
  H   H207      1.0  0.77929  0.72413  0.52128  1.0000
  C   C330      1.0  0.79147  0.75138  0.40439  1.0000
  H   H208      1.0  0.78566  0.75367  0.45733  1.0000
  C   C331      1.0  0.89809  0.23385  0.40883  1.0000
  C   C332      1.0  0.88506  0.23942  0.38827  1.0000
  H   H209      1.0  0.88092  0.24510  0.43755  1.0000
  C   C333      1.0  0.91767  0.22143  0.35696  1.0000
  C   C334      1.0  0.94544  0.21205  0.38862  1.0000
  C   C335      1.0  0.93899  0.21874  0.45877  1.0000
  C   C336      1.0  0.92513  0.22350  0.44412  1.0000
  C   C337      1.0  0.91881  0.23051  0.51305  1.0000
  C   C338      1.0  0.90539  0.23565  0.49554  1.0000
  H   H210      1.0  0.92409  0.23215  0.57615  1.0000
  H   H211      1.0  0.90118  0.24092  0.54628  1.0000
  H   H212      1.0  0.94461  0.22041  0.52124  1.0000
  C   C339      1.0  0.95978  0.20838  0.40405  1.0000
  H   H213      1.0  0.96773  0.21394  0.45771  1.0000
  C   C340      1.0  0.26868  0.46790  0.40286  1.0000
  C   C341      1.0  0.24956  0.46053  0.38703  1.0000
  H   H214      1.0  0.24116  0.45970  0.43891  1.0000
  C   C342      1.0  0.29951  0.47725  0.34263  1.0000
  C   C343      1.0  0.33793  0.49215  0.36586  1.0000
  C   C344      1.0  0.32659  0.49032  0.43970  1.0000
  C   C345      1.0  0.30731  0.48301  0.42902  1.0000
  C   C346      1.0  0.29569  0.48119  0.50147  1.0000
  C   C347      1.0  0.27653  0.47376  0.48842  1.0000
  H   H215      1.0  0.30107  0.48529  0.56411  1.0000
  H   H216      1.0  0.26837  0.47263  0.54183  1.0000
  H   H217      1.0  0.33239  0.49433  0.50178  1.0000
  C   C348      1.0  0.35658  0.49831  0.37770  1.0000
  H   H218      1.0  0.36041  0.49371  0.43031  1.0000
  C   C349      1.0  0.53180  0.80071  0.40272  1.0000
  C   C350      1.0  0.53919  0.78898  0.38684  1.0000
  H   H219      1.0  0.54002  0.78140  0.43869  1.0000
  C   C351      1.0  0.52243  0.82219  0.34258  1.0000
  C   C352      1.0  0.50753  0.84570  0.36594  1.0000
  C   C353      1.0  0.50935  0.83617  0.43973  1.0000
  C   C354      1.0  0.51667  0.82420  0.42899  1.0000
  C   C355      1.0  0.51849  0.81440  0.50140  1.0000
  C   C356      1.0  0.52594  0.80268  0.48829  1.0000
  H   H220      1.0  0.51439  0.81567  0.56405  1.0000
  H   H221      1.0  0.52708  0.79566  0.54168  1.0000
  H   H222      1.0  0.50535  0.83796  0.50183  1.0000
  C   C357      1.0  0.50136  0.85818  0.37783  1.0000
  H   H223      1.0  0.50596  0.86660  0.43047  1.0000
  C   C358      1.0  0.19896  0.73103  0.40268  1.0000
  C   C359      1.0  0.21068  0.75016  0.38681  1.0000
  H   H224      1.0  0.21827  0.75857  0.43866  1.0000
  C   C360      1.0  0.17748  0.70019  0.34253  1.0000
  C   C361      1.0  0.15397  0.66177  0.36587  1.0000
  C   C362      1.0  0.16350  0.67313  0.43966  1.0000
  C   C363      1.0  0.17547  0.69241  0.42893  1.0000
  C   C364      1.0  0.18527  0.70403  0.50134  1.0000
  C   C365      1.0  0.19699  0.72320  0.48825  1.0000
  H   H225      1.0  0.18400  0.69866  0.56398  1.0000
  H   H226      1.0  0.20401  0.73136  0.54164  1.0000
  H   H227      1.0  0.16172  0.66733  0.50175  1.0000
  C   C366      1.0  0.14150  0.64312  0.37775  1.0000
  H   H228      1.0  0.13308  0.63929  0.43042  1.0000
  C   C367      1.0  0.45401  0.24197  0.36357  1.0000
  C   C368      1.0  0.45601  0.25428  0.43399  1.0000
  N   N85       1.0  0.46316  0.27258  0.41507  1.0000
  C   C369      1.0  0.46865  0.28016  0.33276  1.0000
  C   C370      1.0  0.48535  0.32934  0.37903  1.0000
  N   N86       1.0  0.47820  0.31080  0.38826  1.0000
  H   H229      1.0  0.48613  0.33694  0.43413  1.0000
  C   C371      1.0  0.45088  0.24897  0.52841  1.0000
  H   H230      1.0  0.44459  0.23410  0.53979  1.0000
  H   H231      1.0  0.44094  0.25314  0.54941  1.0000
  H   H232      1.0  0.46324  0.25609  0.57010  1.0000
  C   C372      1.0  0.44880  0.22361  0.37809  1.0000
  H   H233      1.0  0.45588  0.22080  0.42287  1.0000
  C   C373      1.0  0.78771  0.54566  0.36372  1.0000
  C   C374      1.0  0.79801  0.54365  0.43412  1.0000
  N   N87       1.0  0.80916  0.53650  0.41520  1.0000
  C   C375      1.0  0.81125  0.53101  0.33288  1.0000
  C   C376      1.0  0.84373  0.51431  0.37911  1.0000
  N   N88       1.0  0.83234  0.52146  0.38835  1.0000
  H   H234      1.0  0.85055  0.51354  0.43419  1.0000
  C   C377      1.0  0.79783  0.54878  0.52855  1.0000
  H   H235      1.0  0.78925  0.55508  0.53993  1.0000
  H   H236      1.0  0.81194  0.55872  0.54956  1.0000
  H   H237      1.0  0.79258  0.53642  0.57024  1.0000
  C   C378      1.0  0.77455  0.55087  0.37822  1.0000
  H   H238      1.0  0.76466  0.54379  0.42298  1.0000
  C   C379      1.0  0.75769  0.21200  0.36356  1.0000
  C   C380      1.0  0.74538  0.20169  0.43398  1.0000
  N   N89       1.0  0.72708  0.19053  0.41508  1.0000
  C   C381      1.0  0.71950  0.18844  0.33277  1.0000
  C   C382      1.0  0.67032  0.15595  0.37908  1.0000
  N   N90       1.0  0.68887  0.16735  0.38828  1.0000
  H   H239      1.0  0.66273  0.14913  0.43417  1.0000
  C   C383      1.0  0.75069  0.20187  0.52840  1.0000
  H   H240      1.0  0.76557  0.21046  0.53977  1.0000
  H   H241      1.0  0.74653  0.18776  0.54940  1.0000
  H   H242      1.0  0.74357  0.20711  0.57010  1.0000
  C   C384      1.0  0.77605  0.22515  0.37806  1.0000
  H   H243      1.0  0.77887  0.23504  0.42283  1.0000
  C   C385      1.0  0.13278  0.54343  0.36190  1.0000
  C   C386      1.0  0.13936  0.53689  0.43272  1.0000
  N   N91       1.0  0.14431  0.52394  0.41454  1.0000
  C   C387      1.0  0.14345  0.51664  0.33260  1.0000
  C   C388      1.0  0.15956  0.48377  0.38114  1.0000
  N   N92       1.0  0.15446  0.49682  0.38948  1.0000
  H   H244      1.0  0.16415  0.48012  0.43654  1.0000
  C   C389      1.0  0.14147  0.54299  0.52691  1.0000
  H   H245      1.0  0.13805  0.55388  0.53776  1.0000
  H   H246      1.0  0.15582  0.54834  0.54787  1.0000
  H   H247      1.0  0.13244  0.53117  0.56902  1.0000
  C   C390      1.0  0.12547  0.55491  0.37613  1.0000
  H   H248      1.0  0.11551  0.55109  0.42167  1.0000
  C   C391      1.0  0.45627  0.58930  0.36163  1.0000
  C   C392      1.0  0.46281  0.60241  0.43249  1.0000
  N   N93       1.0  0.47576  0.62031  0.41437  1.0000
  C   C393      1.0  0.48306  0.62677  0.33244  1.0000
  C   C394      1.0  0.51592  0.67575  0.38111  1.0000
  N   N94       1.0  0.50287  0.65759  0.38940  1.0000
  H   H249      1.0  0.51957  0.68398  0.43654  1.0000
  C   C395      1.0  0.45672  0.59840  0.52667  1.0000
  H   H250      1.0  0.44582  0.58409  0.53745  1.0000
  H   H251      1.0  0.45137  0.60740  0.54770  1.0000
  H   H252      1.0  0.46852  0.60117  0.56876  1.0000
  C   C396      1.0  0.44482  0.57050  0.37575  1.0000
  H   H253      1.0  0.44864  0.56437  0.42136  1.0000
  C   C397      1.0  0.41039  0.86692  0.36165  1.0000
  C   C398      1.0  0.39727  0.86033  0.43251  1.0000
  N   N95       1.0  0.37938  0.85537  0.41437  1.0000
  C   C399      1.0  0.37292  0.85621  0.33244  1.0000
  C   C400      1.0  0.32394  0.84009  0.38111  1.0000
  N   N96       1.0  0.34209  0.84520  0.38941  1.0000
  H   H254      1.0  0.31570  0.83551  0.43655  1.0000
  C   C401      1.0  0.40128  0.85824  0.52669  1.0000
  H   H255      1.0  0.41560  0.86167  0.53749  1.0000
  H   H256      1.0  0.39229  0.84389  0.54768  1.0000
  H   H257      1.0  0.39850  0.86727  0.56879  1.0000
  C   C402      1.0  0.42918  0.87426  0.37581  1.0000
  H   H258      1.0  0.43531  0.88419  0.42148  1.0000
  C   C403      1.0  0.52367  0.13860  0.40687  1.0000
  C   C404      1.0  0.53711  0.13336  0.39042  1.0000
  H   H259      1.0  0.54116  0.12805  0.44175  1.0000
  C   C405      1.0  0.50376  0.14999  0.34737  1.0000
  C   C406      1.0  0.47630  0.15991  0.37059  1.0000
  C   C407      1.0  0.48246  0.15384  0.44428  1.0000
  C   C408      1.0  0.49612  0.14866  0.43358  1.0000
  C   C409      1.0  0.50238  0.14232  0.50567  1.0000
  C   C410      1.0  0.51599  0.13726  0.49234  1.0000
  H   H260      1.0  0.49701  0.14125  0.56820  1.0000
  H   H261      1.0  0.52023  0.13258  0.54543  1.0000
  H   H262      1.0  0.47695  0.15318  0.50621  1.0000
  C   C411      1.0  0.46370  0.16595  0.38217  1.0000
  H   H263      1.0  0.46511  0.17379  0.43507  1.0000
  C   C412      1.0  0.61469  0.47599  0.40689  1.0000
  C   C413      1.0  0.59601  0.46254  0.39044  1.0000
  H   H264      1.0  0.58664  0.45849  0.44176  1.0000
  C   C414      1.0  0.64598  0.49593  0.34739  1.0000
  C   C415      1.0  0.68336  0.52340  0.37063  1.0000
  C   C416      1.0  0.67113  0.51724  0.44432  1.0000
  C   C417      1.0  0.65229  0.50356  0.43361  1.0000
  C   C418      1.0  0.63969  0.49730  0.50570  1.0000
  C   C419      1.0  0.62102  0.48368  0.49236  1.0000
  H   H265      1.0  0.64398  0.50266  0.56822  1.0000
  H   H266      1.0  0.61211  0.47943  0.54546  1.0000
  H   H267      1.0  0.67596  0.52273  0.50625  1.0000
  C   C420      1.0  0.70199  0.53600  0.38223  1.0000
  H   H268      1.0  0.70842  0.53460  0.43518  1.0000
  C   C421      1.0  0.86107  0.38500  0.40699  1.0000
  C   C422      1.0  0.86631  0.40368  0.39056  1.0000
  H   H269      1.0  0.87162  0.41305  0.44190  1.0000
  C   C423      1.0  0.84970  0.35371  0.34744  1.0000
  C   C424      1.0  0.83979  0.31633  0.37061  1.0000
  C   C425      1.0  0.84584  0.32855  0.44432  1.0000
  C   C426      1.0  0.85102  0.34740  0.43365  1.0000
  C   C427      1.0  0.85734  0.35998  0.50577  1.0000
  C   C428      1.0  0.86241  0.37866  0.49246  1.0000
  H   H270      1.0  0.85842  0.35569  0.56829  1.0000
  H   H271      1.0  0.86708  0.38757  0.54556  1.0000
  H   H272      1.0  0.84650  0.32371  0.50625  1.0000
  C   C429      1.0  0.83375  0.29770  0.38219  1.0000
  H   H273      1.0  0.82590  0.29126  0.43507  1.0000
  C   C430      1.0  0.97782  0.52856  0.40441  1.0000
  C   C431      1.0  0.95867  0.51736  0.38746  1.0000
  H   H274      1.0  0.94967  0.51258  0.44034  1.0000
  C   C432      1.0  0.00954  0.54433  0.34561  1.0000
  C   C433      1.0  0.04816  0.56246  0.37241  1.0000
  C   C434      1.0  0.03605  0.55803  0.44605  1.0000
  C   C435      1.0  0.01663  0.54895  0.43375  1.0000
  C   C436      1.0  0.00420  0.54377  0.50625  1.0000
  C   C437      1.0  0.98493  0.53365  0.49169  1.0000
  H   H275      1.0  0.00907  0.54688  0.57024  1.0000
  H   H276      1.0  0.97618  0.52960  0.54540  1.0000
  H   H277      1.0  0.04135  0.56096  0.50942  1.0000
  C   C438      1.0  0.06696  0.56944  0.38571  1.0000
  H   H278      1.0  0.07105  0.56570  0.44047  1.0000
  C   C439      1.0  0.47114  0.44920  0.40459  1.0000
  C   C440      1.0  0.48234  0.44124  0.38766  1.0000
  H   H279      1.0  0.48714  0.43705  0.44056  1.0000
  C   C441      1.0  0.45537  0.46514  0.34578  1.0000
  C   C442      1.0  0.43723  0.48563  0.37254  1.0000
  C   C443      1.0  0.44165  0.47794  0.44619  1.0000
  C   C444      1.0  0.45074  0.46761  0.43391  1.0000
  C   C445      1.0  0.45592  0.46037  0.50643  1.0000
  C   C446      1.0  0.46605  0.45123  0.49188  1.0000
  H   H280      1.0  0.45280  0.46212  0.57040  1.0000
  H   H281      1.0  0.47009  0.44652  0.54558  1.0000
  H   H282      1.0  0.43873  0.48033  0.50956  1.0000
  C   C447      1.0  0.43024  0.49744  0.38583  1.0000
  H   H283      1.0  0.43402  0.50531  0.44048  1.0000
  C   C448      1.0  0.55047  0.02187  0.40452  1.0000
  C   C449      1.0  0.55843  0.04102  0.38754  1.0000
  H   H284      1.0  0.56265  0.05003  0.44041  1.0000
  C   C450      1.0  0.53453  0.99015  0.34579  1.0000
  C   C451      1.0  0.51405  0.95153  0.37263  1.0000
  C   C452      1.0  0.52175  0.96365  0.44625  1.0000
  C   C453      1.0  0.53207  0.98306  0.43392  1.0000
  C   C454      1.0  0.53932  0.99549  0.50641  1.0000
  C   C455      1.0  0.54845  0.01476  0.49182  1.0000
  H   H285      1.0  0.53759  0.99063  0.57039  1.0000
  H   H286      1.0  0.55318  0.02352  0.54550  1.0000
  H   H287      1.0  0.51938  0.95834  0.50963  1.0000
  C   C456      1.0  0.50225  0.93273  0.38594  1.0000
  H   H288      1.0  0.49439  0.92863  0.44063  1.0000
