data_image0
_chemical_formula_structural       C2HC3HNH2NO2C2HC3HNH2NO2C2HC3HNH2NO2C7H2NH2NO2C7H2NH2NO2C7H2NH2NO2C2HC3HNH2NO2C2HC3HNH2NO2C2HC3HNH2NO2C2HC3HNH2NO2C2HC3HNH2NO2C2HC3HNH2NO2C7H2NH2NO2C7H2NH2NO2C7H2NH2NO2C7H2NH2NO2C7H2NH2NO2C7H2NH2NO2C2HC3HNH2NO2C2HC3HNH2NO2C2HC3HNH2NO2C2HC3HNH2NO2C2HC3HNH2NO2C2HC3HNH2NO2C6H3C6H3C6H3C6H3C6H3C6H3C6H3C6H3C6H3C6H3C6H3C6H3C6H3C6H3C6H3C6H3C7H2NH2NO2C7H2NH2NO2C7H2NH2NO2C2HC3HNH2NO2C2HC3HNH2NO2C2HC3HNH2NO2C7H2NH2NO2C7H2NH2NO2C7H2NH2NO2C7H2NH2NO2C7H2NH2NO2C7H2NH2NO2C2HC3HNH2NO2C2HC3HNH2NO2C2HC3HNH2NO2C2HC3HNH2NO2C2HC3HNH2NO2C2HC3HNH2NO2C7H2NH2NO2C7H2NH2NO2C7H2NH2NO2C7H2NH2NO2C7H2NH2NO2C7H2NH2NO2
_chemical_formula_sum              "C384 H240 N96 O96"
_cell_length_a       63.6118
_cell_length_b       63.6118
_cell_length_c       14.8636
_cell_angle_alpha    90
_cell_angle_beta     90
_cell_angle_gamma    120

_space_group_name_H-M_alt    "P 1"
_space_group_IT_number       1

loop_
  _space_group_symop_operation_xyz
  'x, y, z'

loop_
  _atom_site_type_symbol
  _atom_site_label
  _atom_site_symmetry_multiplicity
  _atom_site_fract_x
  _atom_site_fract_y
  _atom_site_fract_z
  _atom_site_occupancy
  C   C1        1.0  0.99191  0.07645  0.27945  1.0000
  C   C2        1.0  0.99297  0.05461  0.28209  1.0000
  H   H1        1.0  0.98316  0.04138  0.23566  1.0000
  C   C3        1.0  0.00686  0.16444  0.34180  1.0000
  C   C4        1.0  0.01854  0.15820  0.27382  1.0000
  C   C5        1.0  0.01779  0.13547  0.27656  1.0000
  H   H2        1.0  0.02628  0.13149  0.22637  1.0000
  N   N1        1.0  0.97734  0.07842  0.21700  1.0000
  H   H3        1.0  0.96786  0.06536  0.17476  1.0000
  H   H4        1.0  0.97537  0.09259  0.21373  1.0000
  N   N2        1.0  0.03006  0.17450  0.20157  1.0000
  O   O1        1.0  0.02025  0.16527  0.12752  1.0000
  O   O2        1.0  0.05224  0.18108  0.19712  1.0000
  C   C6        1.0  0.93502  0.91777  0.27945  1.0000
  C   C7        1.0  0.95686  0.94067  0.28210  1.0000
  H   H5        1.0  0.97009  0.94408  0.23566  1.0000
  C   C8        1.0  0.84703  0.84473  0.34182  1.0000
  C   C9        1.0  0.85327  0.86264  0.27386  1.0000
  C   C10       1.0  0.87599  0.88463  0.27659  1.0000
  H   H6        1.0  0.87997  0.89709  0.22639  1.0000
  N   N3        1.0  0.93304  0.90122  0.21699  1.0000
  H   H7        1.0  0.94611  0.90481  0.17475  1.0000
  H   H8        1.0  0.91887  0.88508  0.21372  1.0000
  N   N4        1.0  0.83696  0.85786  0.20161  1.0000
  O   O3        1.0  0.84620  0.85729  0.12755  1.0000
  O   O4        1.0  0.83039  0.87346  0.19715  1.0000
  C   C11       1.0  0.09371  0.01956  0.27945  1.0000
  C   C12       1.0  0.07081  0.01850  0.28209  1.0000
  H   H9        1.0  0.06739  0.02831  0.23566  1.0000
  C   C13       1.0  0.16675  0.00461  0.34180  1.0000
  C   C14       1.0  0.14884  0.99294  0.27382  1.0000
  C   C15       1.0  0.12685  0.99368  0.27656  1.0000
  H   H10       1.0  0.11438  0.98520  0.22637  1.0000
  N   N5        1.0  0.11026  0.03413  0.21699  1.0000
  H   H11       1.0  0.10667  0.04361  0.17475  1.0000
  H   H12       1.0  0.12640  0.03611  0.21372  1.0000
  N   N6        1.0  0.15361  0.98142  0.20156  1.0000
  O   O5        1.0  0.15419  0.99123  0.12751  1.0000
  O   O6        1.0  0.13801  0.95924  0.19711  1.0000
  C   C16       1.0  0.14672  0.38081  0.33964  1.0000
  C   C17       1.0  0.14680  0.36417  0.27586  1.0000
  C   C18       1.0  0.12818  0.33944  0.27769  1.0000
  C   C19       1.0  0.10883  0.33050  0.34014  1.0000
  C   C20       1.0  0.08990  0.30552  0.33381  1.0000
  C   C21       1.0  0.07254  0.29672  0.26272  1.0000
  C   C22       1.0  0.05372  0.27207  0.26381  1.0000
  H   H13       1.0  0.04094  0.26604  0.21374  1.0000
  H   H14       1.0  0.12848  0.32788  0.23039  1.0000
  N   N7        1.0  0.07268  0.31124  0.19507  1.0000
  H   H15       1.0  0.08452  0.32844  0.19259  1.0000
  H   H16       1.0  0.06044  0.30494  0.14782  1.0000
  N   N8        1.0  0.16482  0.37263  0.20790  1.0000
  O   O7        1.0  0.17700  0.36203  0.21112  1.0000
  O   O8        1.0  0.15574  0.36983  0.13070  1.0000
  C   C23       1.0  0.63068  0.76821  0.33963  1.0000
  C   C24       1.0  0.64731  0.78492  0.27585  1.0000
  C   C25       1.0  0.67204  0.79104  0.27767  1.0000
  C   C26       1.0  0.68097  0.78062  0.34011  1.0000
  C   C27       1.0  0.70596  0.78667  0.33377  1.0000
  C   C28       1.0  0.71475  0.77809  0.26270  1.0000
  C   C29       1.0  0.73939  0.78390  0.26383  1.0000
  H   H17       1.0  0.74542  0.77716  0.21374  1.0000
  H   H18       1.0  0.68360  0.80289  0.23035  1.0000
  N   N9        1.0  0.70022  0.76371  0.19507  1.0000
  H   H19       1.0  0.68302  0.75837  0.19256  1.0000
  H   H20       1.0  0.70651  0.75775  0.14784  1.0000
  N   N10       1.0  0.63885  0.79448  0.20788  1.0000
  O   O9        1.0  0.64945  0.81726  0.21109  1.0000
  O   O10       1.0  0.64165  0.78819  0.13068  1.0000
  C   C30       1.0  0.24327  0.86476  0.33960  1.0000
  C   C31       1.0  0.22655  0.86468  0.27584  1.0000
  C   C32       1.0  0.22043  0.88329  0.27767  1.0000
  C   C33       1.0  0.23084  0.90264  0.34012  1.0000
  C   C34       1.0  0.22479  0.92157  0.33380  1.0000
  C   C35       1.0  0.23334  0.93893  0.26270  1.0000
  C   C36       1.0  0.22751  0.95774  0.26379  1.0000
  H   H21       1.0  0.23426  0.97052  0.21372  1.0000
  H   H22       1.0  0.20857  0.88299  0.23038  1.0000
  N   N11       1.0  0.24772  0.93879  0.19505  1.0000
  H   H23       1.0  0.25309  0.92695  0.19256  1.0000
  H   H24       1.0  0.25367  0.95103  0.14780  1.0000
  N   N12       1.0  0.21699  0.84666  0.20787  1.0000
  O   O11       1.0  0.19421  0.83447  0.21110  1.0000
  O   O12       1.0  0.22327  0.85574  0.13067  1.0000
  C   C37       1.0  0.34915  0.10681  0.28009  1.0000
  C   C38       1.0  0.37373  0.12582  0.28102  1.0000
  H   H25       1.0  0.38537  0.12554  0.23402  1.0000
  C   C39       1.0  0.25802  0.04912  0.35185  1.0000
  C   C40       1.0  0.26669  0.06669  0.28206  1.0000
  C   C41       1.0  0.29117  0.08595  0.28326  1.0000
  H   H26       1.0  0.29719  0.09819  0.23140  1.0000
  N   N13       1.0  0.34238  0.08865  0.21870  1.0000
  H   H27       1.0  0.35396  0.08862  0.17595  1.0000
  H   H28       1.0  0.32604  0.07479  0.21686  1.0000
  N   N14       1.0  0.25107  0.06396  0.20961  1.0000
  O   O13       1.0  0.25909  0.06104  0.13621  1.0000
  O   O14       1.0  0.24819  0.08205  0.20282  1.0000
  C   C42       1.0  0.76683  0.66231  0.28009  1.0000
  C   C43       1.0  0.76125  0.63772  0.28103  1.0000
  H   H29       1.0  0.74933  0.62609  0.23404  1.0000
  C   C44       1.0  0.80032  0.75346  0.35187  1.0000
  C   C45       1.0  0.80918  0.74477  0.28200  1.0000
  C   C46       1.0  0.80395  0.72028  0.28320  1.0000
  H   H30       1.0  0.81014  0.71425  0.23127  1.0000
  N   N15       1.0  0.75544  0.66907  0.21870  1.0000
  H   H31       1.0  0.74382  0.65749  0.17597  1.0000
  H   H32       1.0  0.75791  0.68541  0.21686  1.0000
  N   N16       1.0  0.82203  0.76038  0.20949  1.0000
  O   O15       1.0  0.81105  0.75235  0.13615  1.0000
  O   O16       1.0  0.84300  0.76325  0.20252  1.0000
  C   C47       1.0  0.90466  0.24463  0.28007  1.0000
  C   C48       1.0  0.88565  0.25022  0.28101  1.0000
  H   H33       1.0  0.88592  0.26212  0.23400  1.0000
  C   C49       1.0  0.96234  0.21120  0.35184  1.0000
  C   C50       1.0  0.94478  0.20230  0.28202  1.0000
  C   C51       1.0  0.92552  0.20752  0.28322  1.0000
  H   H34       1.0  0.91328  0.20131  0.23135  1.0000
  N   N17       1.0  0.92281  0.25603  0.21868  1.0000
  H   H35       1.0  0.92285  0.26765  0.17594  1.0000
  H   H36       1.0  0.93668  0.25356  0.21684  1.0000
  N   N18       1.0  0.94751  0.18941  0.20957  1.0000
  O   O17       1.0  0.95044  0.20036  0.13617  1.0000
  O   O18       1.0  0.92942  0.16845  0.20274  1.0000
  C   C52       1.0  0.32374  0.47558  0.26905  1.0000
  C   C53       1.0  0.34945  0.48877  0.27078  1.0000
  H   H37       1.0  0.35868  0.48454  0.22443  1.0000
  C   C54       1.0  0.23309  0.44808  0.32925  1.0000
  C   C55       1.0  0.24758  0.46319  0.25778  1.0000
  C   C56       1.0  0.27311  0.47372  0.26158  1.0000
  H   H38       1.0  0.28329  0.48479  0.20990  1.0000
  N   N19       1.0  0.31250  0.45742  0.20755  1.0000
  H   H39       1.0  0.32175  0.45352  0.16533  1.0000
  H   H40       1.0  0.29498  0.44703  0.20607  1.0000
  N   N20       1.0  0.23630  0.46729  0.18289  1.0000
  O   O19       1.0  0.24042  0.45942  0.11141  1.0000
  O   O20       1.0  0.24332  0.48946  0.17303  1.0000
  C   C57       1.0  0.53589  0.85046  0.26905  1.0000
  C   C58       1.0  0.52270  0.86297  0.27079  1.0000
  H   H41       1.0  0.52693  0.87642  0.22442  1.0000
  C   C59       1.0  0.56340  0.78731  0.32925  1.0000
  C   C60       1.0  0.54829  0.78669  0.25779  1.0000
  C   C61       1.0  0.53775  0.80168  0.26159  1.0000
  H   H42       1.0  0.52668  0.80079  0.20990  1.0000
  N   N21       1.0  0.55406  0.85737  0.20755  1.0000
  H   H43       1.0  0.55796  0.87053  0.16534  1.0000
  H   H44       1.0  0.56444  0.85024  0.20607  1.0000
  N   N22       1.0  0.54419  0.77130  0.18289  1.0000
  O   O21       1.0  0.55206  0.78330  0.11142  1.0000
  O   O22       1.0  0.52202  0.75615  0.17303  1.0000
  C   C62       1.0  0.16101  0.68773  0.26907  1.0000
  C   C63       1.0  0.14850  0.66203  0.27081  1.0000
  H   H45       1.0  0.13504  0.65280  0.22445  1.0000
  C   C64       1.0  0.22416  0.77839  0.32923  1.0000
  C   C65       1.0  0.22479  0.76390  0.25778  1.0000
  C   C66       1.0  0.20979  0.73837  0.26159  1.0000
  H   H46       1.0  0.21068  0.72818  0.20991  1.0000
  N   N23       1.0  0.15410  0.69898  0.20755  1.0000
  H   H47       1.0  0.14095  0.68973  0.16534  1.0000
  H   H48       1.0  0.16124  0.71650  0.20607  1.0000
  N   N24       1.0  0.24017  0.77518  0.18288  1.0000
  O   O23       1.0  0.22819  0.77105  0.11141  1.0000
  O   O24       1.0  0.25532  0.76816  0.17304  1.0000
  C   C67       1.0  0.50984  0.36111  0.35223  1.0000
  C   C68       1.0  0.51502  0.34795  0.28728  1.0000
  C   C69       1.0  0.50226  0.32222  0.28992  1.0000
  C   C70       1.0  0.48383  0.30900  0.35391  1.0000
  C   C71       1.0  0.47184  0.28302  0.35226  1.0000
  C   C72       1.0  0.45607  0.26865  0.28149  1.0000
  C   C73       1.0  0.44570  0.24306  0.28480  1.0000
  H   H49       1.0  0.43492  0.23277  0.23269  1.0000
  H   H50       1.0  0.50624  0.31302  0.24261  1.0000
  N   N25       1.0  0.45037  0.27851  0.21085  1.0000
  H   H51       1.0  0.45627  0.29581  0.20679  1.0000
  H   H52       1.0  0.43939  0.26837  0.16353  1.0000
  N   N26       1.0  0.53211  0.36058  0.21825  1.0000
  O   O25       1.0  0.54938  0.35630  0.22018  1.0000
  O   O26       1.0  0.52246  0.35518  0.14168  1.0000
  C   C74       1.0  0.86046  0.50164  0.35219  1.0000
  C   C75       1.0  0.84211  0.49645  0.28727  1.0000
  C   C76       1.0  0.82914  0.50921  0.28990  1.0000
  C   C77       1.0  0.83435  0.52764  0.35390  1.0000
  C   C78       1.0  0.82036  0.53963  0.35226  1.0000
  C   C79       1.0  0.82176  0.55541  0.28149  1.0000
  C   C80       1.0  0.80654  0.56578  0.28484  1.0000
  H   H53       1.0  0.80702  0.57654  0.23270  1.0000
  H   H54       1.0  0.81595  0.50522  0.24263  1.0000
  N   N27       1.0  0.83731  0.56110  0.21086  1.0000
  H   H55       1.0  0.84871  0.55520  0.20678  1.0000
  H   H56       1.0  0.83816  0.57208  0.16354  1.0000
  N   N28       1.0  0.83764  0.47936  0.21825  1.0000
  O   O27       1.0  0.81610  0.46209  0.22020  1.0000
  O   O28       1.0  0.84189  0.48901  0.14168  1.0000
  C   C81       1.0  0.65036  0.15103  0.35224  1.0000
  C   C82       1.0  0.66352  0.16936  0.28729  1.0000
  C   C83       1.0  0.68925  0.18233  0.28992  1.0000
  C   C84       1.0  0.70247  0.17712  0.35392  1.0000
  C   C85       1.0  0.72844  0.19111  0.35227  1.0000
  C   C86       1.0  0.74282  0.18970  0.28149  1.0000
  C   C87       1.0  0.76841  0.20493  0.28480  1.0000
  H   H57       1.0  0.77870  0.20444  0.23269  1.0000
  H   H58       1.0  0.69845  0.19551  0.24261  1.0000
  N   N29       1.0  0.73296  0.17415  0.21088  1.0000
  H   H59       1.0  0.71566  0.16274  0.20683  1.0000
  H   H60       1.0  0.74309  0.17330  0.16355  1.0000
  N   N30       1.0  0.65089  0.17383  0.21826  1.0000
  O   O29       1.0  0.65517  0.19537  0.22017  1.0000
  O   O30       1.0  0.65629  0.16957  0.14169  1.0000
  C   C88       1.0  0.16794  0.46785  0.34332  1.0000
  C   C89       1.0  0.15179  0.46900  0.28024  1.0000
  C   C90       1.0  0.14759  0.48888  0.28267  1.0000
  C   C91       1.0  0.15960  0.50817  0.34465  1.0000
  C   C92       1.0  0.15431  0.52755  0.34317  1.0000
  C   C93       1.0  0.16131  0.54465  0.27148  1.0000
  C   C94       1.0  0.15460  0.56280  0.27545  1.0000
  H   H61       1.0  0.15893  0.57463  0.22269  1.0000
  H   H62       1.0  0.13588  0.48944  0.23673  1.0000
  N   N31       1.0  0.17435  0.54436  0.19935  1.0000
  H   H63       1.0  0.18009  0.53284  0.19464  1.0000
  H   H64       1.0  0.17913  0.55631  0.15139  1.0000
  N   N32       1.0  0.14086  0.45084  0.21323  1.0000
  O   O31       1.0  0.11809  0.44002  0.21833  1.0000
  O   O32       1.0  0.14713  0.45956  0.13553  1.0000
  C   C95       1.0  0.54363  0.70238  0.34332  1.0000
  C   C96       1.0  0.54248  0.68509  0.28022  1.0000
  C   C97       1.0  0.52260  0.66101  0.28266  1.0000
  C   C98       1.0  0.50331  0.65372  0.34465  1.0000
  C   C99       1.0  0.48392  0.62906  0.34315  1.0000
  C   C100      1.0  0.46683  0.61897  0.27146  1.0000
  C   C101      1.0  0.44868  0.59409  0.27540  1.0000
  H   H65       1.0  0.43684  0.58660  0.22267  1.0000
  H   H66       1.0  0.52203  0.64874  0.23668  1.0000
  N   N33       1.0  0.46712  0.63231  0.19937  1.0000
  H   H67       1.0  0.47863  0.64957  0.19469  1.0000
  H   H68       1.0  0.45516  0.62513  0.15140  1.0000
  N   N34       1.0  0.56063  0.69231  0.21321  1.0000
  O   O33       1.0  0.57146  0.68038  0.21828  1.0000
  O   O34       1.0  0.55191  0.68987  0.13550  1.0000
  C   C102      1.0  0.30909  0.84353  0.34330  1.0000
  C   C103      1.0  0.32639  0.85969  0.28021  1.0000
  C   C104      1.0  0.35047  0.86389  0.28264  1.0000
  C   C105      1.0  0.35776  0.85188  0.34463  1.0000
  C   C106      1.0  0.38242  0.85717  0.34315  1.0000
  C   C107      1.0  0.39251  0.85017  0.27148  1.0000
  C   C108      1.0  0.41739  0.85688  0.27544  1.0000
  H   H69       1.0  0.42488  0.85254  0.22269  1.0000
  H   H70       1.0  0.36274  0.87560  0.23670  1.0000
  N   N35       1.0  0.37918  0.83711  0.19937  1.0000
  H   H71       1.0  0.36192  0.83137  0.19467  1.0000
  H   H72       1.0  0.38636  0.83233  0.15141  1.0000
  N   N36       1.0  0.31916  0.87062  0.21321  1.0000
  O   O35       1.0  0.33110  0.89338  0.21829  1.0000
  O   O36       1.0  0.32161  0.86435  0.13550  1.0000
  C   C109      1.0  0.50916  0.17377  0.27421  1.0000
  C   C110      1.0  0.48893  0.17738  0.27584  1.0000
  H   H73       1.0  0.48829  0.18910  0.23009  1.0000
  C   C111      1.0  0.56654  0.13925  0.33505  1.0000
  C   C112      1.0  0.54976  0.13269  0.26296  1.0000
  C   C113      1.0  0.53154  0.13921  0.26638  1.0000
  H   H74       1.0  0.51938  0.13406  0.21436  1.0000
  N   N37       1.0  0.52714  0.18650  0.21335  1.0000
  H   H75       1.0  0.52622  0.19777  0.17143  1.0000
  H   H76       1.0  0.54195  0.18563  0.21201  1.0000
  N   N38       1.0  0.55160  0.11989  0.18808  1.0000
  O   O37       1.0  0.55578  0.13195  0.11676  1.0000
  O   O38       1.0  0.53259  0.09973  0.17761  1.0000
  C   C114      1.0  0.67378  0.50230  0.27422  1.0000
  C   C115      1.0  0.69762  0.52253  0.27584  1.0000
  H   H77       1.0  0.70998  0.52316  0.23011  1.0000
  C   C116      1.0  0.58189  0.44493  0.33503  1.0000
  C   C117      1.0  0.59210  0.46170  0.26295  1.0000
  C   C118      1.0  0.61684  0.47992  0.26637  1.0000
  H   H78       1.0  0.62385  0.49208  0.21436  1.0000
  N   N39       1.0  0.66853  0.48432  0.21336  1.0000
  H   H79       1.0  0.68072  0.48524  0.17143  1.0000
  H   H80       1.0  0.65285  0.46951  0.21203  1.0000
  N   N40       1.0  0.57747  0.45987  0.18808  1.0000
  O   O39       1.0  0.58534  0.45569  0.11675  1.0000
  O   O40       1.0  0.57631  0.47888  0.17762  1.0000
  C   C119      1.0  0.83769  0.33768  0.27421  1.0000
  C   C120      1.0  0.83409  0.31385  0.27584  1.0000
  H   H81       1.0  0.82237  0.30149  0.23009  1.0000
  C   C121      1.0  0.87221  0.42958  0.33502  1.0000
  C   C122      1.0  0.87877  0.41937  0.26294  1.0000
  C   C123      1.0  0.87225  0.39462  0.26636  1.0000
  H   H82       1.0  0.87740  0.38761  0.21434  1.0000
  N   N41       1.0  0.82497  0.34294  0.21335  1.0000
  H   H83       1.0  0.81370  0.33074  0.17144  1.0000
  H   H84       1.0  0.82584  0.35862  0.21203  1.0000
  N   N42       1.0  0.89157  0.43400  0.18806  1.0000
  O   O41       1.0  0.87951  0.42612  0.11674  1.0000
  O   O42       1.0  0.91173  0.43516  0.17758  1.0000
  C   C124      1.0  0.97959  0.54523  0.28199  1.0000
  C   C125      1.0  0.95408  0.53003  0.28554  1.0000
  H   H85       1.0  0.94362  0.53216  0.23800  1.0000
  C   C126      1.0  0.07125  0.57665  0.33747  1.0000
  C   C127      1.0  0.05683  0.56046  0.26839  1.0000
  C   C128      1.0  0.03132  0.54959  0.27316  1.0000
  H   H86       1.0  0.02103  0.53760  0.22379  1.0000
  N   N43       1.0  0.98927  0.56274  0.21746  1.0000
  H   H87       1.0  0.97901  0.56500  0.17451  1.0000
  H   H88       1.0  0.00658  0.57419  0.21421  1.0000
  N   N44       1.0  0.06808  0.55569  0.19505  1.0000
  O   O43       1.0  0.06341  0.56230  0.12171  1.0000
  O   O44       1.0  0.06155  0.53353  0.18980  1.0000
  C   C129      1.0  0.46623  0.43664  0.28197  1.0000
  C   C130      1.0  0.48143  0.42633  0.28554  1.0000
  H   H89       1.0  0.47930  0.41374  0.23802  1.0000
  C   C131      1.0  0.43482  0.49690  0.33746  1.0000
  C   C132      1.0  0.45100  0.49866  0.26835  1.0000
  C   C133      1.0  0.46186  0.48401  0.27312  1.0000
  H   H90       1.0  0.47386  0.48571  0.22373  1.0000
  N   N45       1.0  0.44872  0.42881  0.21745  1.0000
  H   H91       1.0  0.44646  0.41629  0.17452  1.0000
  H   H92       1.0  0.43727  0.43466  0.21419  1.0000
  N   N46       1.0  0.45577  0.51467  0.19501  1.0000
  O   O45       1.0  0.44914  0.50338  0.12168  1.0000
  O   O46       1.0  0.47792  0.53030  0.18973  1.0000
  C   C134      1.0  0.57483  0.03189  0.28200  1.0000
  C   C135      1.0  0.58515  0.05740  0.28556  1.0000
  H   H93       1.0  0.59773  0.06785  0.23802  1.0000
  C   C136      1.0  0.51458  0.94022  0.33746  1.0000
  C   C137      1.0  0.51282  0.95464  0.26837  1.0000
  C   C138      1.0  0.52747  0.98015  0.27314  1.0000
  H   H94       1.0  0.52576  0.99045  0.22377  1.0000
  N   N47       1.0  0.58266  0.02221  0.21748  1.0000
  H   H95       1.0  0.59518  0.03247  0.17453  1.0000
  H   H96       1.0  0.57681  0.00490  0.21424  1.0000
  N   N48       1.0  0.49680  0.94340  0.19503  1.0000
  O   O47       1.0  0.50809  0.94807  0.12169  1.0000
  O   O48       1.0  0.48117  0.94993  0.18977  1.0000
  C   C139      1.0  0.00705  0.02738  0.34480  1.0000
  C   C140      1.0  0.02897  0.02652  0.34428  1.0000
  C   C141      1.0  0.02950  0.00442  0.34480  1.0000
  C   C142      1.0  0.00672  0.98251  0.34429  1.0000
  C   C143      1.0  0.98410  0.98197  0.34481  1.0000
  C   C144      1.0  0.98496  0.00475  0.34428  1.0000
  H   H97       1.0  0.00659  0.96636  0.34354  1.0000
  H   H98       1.0  0.96894  0.00488  0.34354  1.0000
  H   H99       1.0  0.04511  0.04253  0.34353  1.0000
  C   C145      1.0  0.02922  0.23246  0.33793  1.0000
  C   C146      1.0  0.00672  0.23184  0.34256  1.0000
  C   C147      1.0  0.98429  0.20990  0.34758  1.0000
  C   C148      1.0  0.98476  0.18781  0.34675  1.0000
  C   C149      1.0  0.00685  0.18727  0.34233  1.0000
  C   C150      1.0  0.02888  0.20998  0.33895  1.0000
  H   H100      1.0  0.96862  0.17179  0.34943  1.0000
  H   H101      1.0  0.04507  0.21021  0.33680  1.0000
  H   H102      1.0  0.00667  0.24794  0.34241  1.0000
  C   C151      1.0  0.77902  0.79903  0.33792  1.0000
  C   C152      1.0  0.77965  0.77716  0.34255  1.0000
  C   C153      1.0  0.80160  0.77669  0.34759  1.0000
  C   C154      1.0  0.82368  0.79925  0.34677  1.0000
  C   C155      1.0  0.82421  0.82188  0.34234  1.0000
  C   C156      1.0  0.80149  0.82119  0.33895  1.0000
  H   H103      1.0  0.83970  0.79915  0.34945  1.0000
  H   H104      1.0  0.80125  0.83715  0.33679  1.0000
  H   H105      1.0  0.76355  0.76101  0.34241  1.0000
  C   C157      1.0  0.21241  0.98225  0.33791  1.0000
  C   C158      1.0  0.23429  0.00474  0.34255  1.0000
  C   C159      1.0  0.23478  0.02717  0.34758  1.0000
  C   C160      1.0  0.21222  0.02671  0.34675  1.0000
  C   C161      1.0  0.18958  0.00462  0.34233  1.0000
  C   C162      1.0  0.19026  0.98259  0.33894  1.0000
  H   H106      1.0  0.21234  0.04285  0.34944  1.0000
  H   H107      1.0  0.17430  0.96640  0.33680  1.0000
  H   H108      1.0  0.25043  0.00479  0.34241  1.0000
  C   C163      1.0  0.17473  0.44946  0.34023  1.0000
  C   C164      1.0  0.19959  0.45654  0.33571  1.0000
  C   C165      1.0  0.20759  0.43946  0.33369  1.0000
  C   C166      1.0  0.18994  0.41448  0.33758  1.0000
  C   C167      1.0  0.16467  0.40634  0.33957  1.0000
  C   C168      1.0  0.15758  0.42428  0.34143  1.0000
  H   H109      1.0  0.19566  0.40204  0.33809  1.0000
  H   H110      1.0  0.13951  0.41892  0.34398  1.0000
  H   H111      1.0  0.21227  0.47466  0.33394  1.0000
  C   C169      1.0  0.56202  0.72757  0.34024  1.0000
  C   C170      1.0  0.55494  0.74535  0.33571  1.0000
  C   C171      1.0  0.57201  0.77042  0.33368  1.0000
  C   C172      1.0  0.59700  0.77775  0.33756  1.0000
  C   C173      1.0  0.60514  0.76063  0.33956  1.0000
  C   C174      1.0  0.58720  0.73560  0.34143  1.0000
  H   H112      1.0  0.60944  0.79592  0.33809  1.0000
  H   H113      1.0  0.59256  0.72289  0.34398  1.0000
  H   H114      1.0  0.53682  0.73991  0.33395  1.0000
  C   C175      1.0  0.28391  0.83675  0.34022  1.0000
  C   C176      1.0  0.26613  0.81189  0.33571  1.0000
  C   C177      1.0  0.24105  0.80389  0.33369  1.0000
  C   C178      1.0  0.23373  0.82154  0.33755  1.0000
  C   C179      1.0  0.25085  0.84680  0.33955  1.0000
  C   C180      1.0  0.27588  0.85390  0.34140  1.0000
  H   H115      1.0  0.21556  0.81582  0.33807  1.0000
  H   H116      1.0  0.28859  0.87197  0.34396  1.0000
  H   H117      1.0  0.27157  0.79920  0.33394  1.0000
  C   C181      1.0  0.45159  0.17287  0.34310  1.0000
  C   C182      1.0  0.45872  0.19774  0.34815  1.0000
  C   C183      1.0  0.44169  0.20578  0.35111  1.0000
  C   C184      1.0  0.41669  0.18817  0.34741  1.0000
  C   C185      1.0  0.40850  0.16290  0.34468  1.0000
  C   C186      1.0  0.42640  0.15576  0.34208  1.0000
  H   H118      1.0  0.40427  0.19392  0.34753  1.0000
  H   H119      1.0  0.42100  0.13768  0.33916  1.0000
  H   H120      1.0  0.47686  0.21038  0.34973  1.0000
  C   C187      1.0  0.73045  0.55987  0.34311  1.0000
  C   C188      1.0  0.74818  0.55274  0.34816  1.0000
  C   C189      1.0  0.77326  0.56977  0.35112  1.0000
  C   C190      1.0  0.78065  0.59477  0.34741  1.0000
  C   C191      1.0  0.76357  0.60296  0.34469  1.0000
  C   C192      1.0  0.73853  0.58506  0.34211  1.0000
  H   H121      1.0  0.79882  0.60719  0.34753  1.0000
  H   H122      1.0  0.72585  0.59045  0.33918  1.0000
  H   H123      1.0  0.74270  0.53460  0.34974  1.0000
  C   C193      1.0  0.83860  0.28102  0.34309  1.0000
  C   C194      1.0  0.81373  0.26328  0.34814  1.0000
  C   C195      1.0  0.80568  0.23821  0.35111  1.0000
  C   C196      1.0  0.82330  0.23082  0.34738  1.0000
  C   C197      1.0  0.84857  0.24790  0.34467  1.0000
  C   C198      1.0  0.85571  0.27293  0.34209  1.0000
  H   H124      1.0  0.81755  0.21265  0.34752  1.0000
  H   H125      1.0  0.87378  0.28561  0.33916  1.0000
  H   H126      1.0  0.80109  0.26878  0.34973  1.0000
  C   C199      1.0  0.09690  0.58691  0.33899  1.0000
  C   C200      1.0  0.10703  0.57164  0.34219  1.0000
  C   C201      1.0  0.13239  0.58115  0.34379  1.0000
  C   C202      1.0  0.14779  0.60667  0.33939  1.0000
  C   C203      1.0  0.13824  0.62264  0.33775  1.0000
  C   C204      1.0  0.11266  0.61227  0.33869  1.0000
  H   H127      1.0  0.16618  0.61367  0.33818  1.0000
  H   H128      1.0  0.10527  0.62336  0.33806  1.0000
  H   H129      1.0  0.09566  0.55320  0.34381  1.0000
  C   C205      1.0  0.42457  0.51229  0.33898  1.0000
  C   C206      1.0  0.43983  0.53768  0.34217  1.0000
  C   C207      1.0  0.43033  0.55354  0.34377  1.0000
  C   C208      1.0  0.40481  0.54342  0.33937  1.0000
  C   C209      1.0  0.38884  0.51790  0.33772  1.0000
  C   C210      1.0  0.39920  0.50269  0.33867  1.0000
  H   H130      1.0  0.39782  0.55482  0.33812  1.0000
  H   H131      1.0  0.38811  0.48421  0.33805  1.0000
  H   H132      1.0  0.45827  0.54475  0.34379  1.0000
  C   C211      1.0  0.49919  0.91458  0.33898  1.0000
  C   C212      1.0  0.47380  0.90445  0.34218  1.0000
  C   C213      1.0  0.45794  0.87909  0.34378  1.0000
  C   C214      1.0  0.46806  0.86369  0.33937  1.0000
  C   C215      1.0  0.49357  0.87323  0.33771  1.0000
  C   C216      1.0  0.50879  0.89881  0.33866  1.0000
  H   H133      1.0  0.45666  0.84530  0.33814  1.0000
  H   H134      1.0  0.52726  0.90619  0.33803  1.0000
  H   H135      1.0  0.46673  0.91582  0.34380  1.0000
  C   C217      1.0  0.58855  0.09457  0.34874  1.0000
  C   C218      1.0  0.57342  0.10483  0.34274  1.0000
  C   C219      1.0  0.58301  0.13020  0.34052  1.0000
  C   C220      1.0  0.60852  0.14553  0.34595  1.0000
  C   C221      1.0  0.62439  0.13590  0.34959  1.0000
  C   C222      1.0  0.61394  0.11031  0.35032  1.0000
  H   H136      1.0  0.61558  0.16394  0.34640  1.0000
  H   H137      1.0  0.62499  0.10291  0.35277  1.0000
  H   H138      1.0  0.55499  0.09355  0.33980  1.0000
  C   C223      1.0  0.51519  0.42292  0.34874  1.0000
  C   C224      1.0  0.54058  0.43804  0.34274  1.0000
  C   C225      1.0  0.55636  0.42846  0.34055  1.0000
  C   C226      1.0  0.54618  0.40295  0.34595  1.0000
  C   C227      1.0  0.52068  0.38707  0.34959  1.0000
  C   C228      1.0  0.50555  0.39753  0.35032  1.0000
  H   H139      1.0  0.55753  0.39588  0.34638  1.0000
  H   H140      1.0  0.48709  0.38647  0.35277  1.0000
  H   H141      1.0  0.54773  0.45648  0.33981  1.0000
  C   C229      1.0  0.91691  0.49628  0.34874  1.0000
  C   C230      1.0  0.90664  0.47089  0.34274  1.0000
  C   C231      1.0  0.88127  0.45511  0.34054  1.0000
  C   C232      1.0  0.86594  0.46529  0.34593  1.0000
  C   C233      1.0  0.87558  0.49079  0.34957  1.0000
  C   C234      1.0  0.90116  0.50592  0.35031  1.0000
  H   H142      1.0  0.84753  0.45395  0.34636  1.0000
  H   H143      1.0  0.90857  0.52438  0.35275  1.0000
  H   H144      1.0  0.91792  0.46374  0.33981  1.0000
  C   C235      1.0  0.00711  0.05031  0.34533  1.0000
  C   C236      1.0  0.02060  0.06919  0.40843  1.0000
  C   C237      1.0  0.01974  0.09112  0.40601  1.0000
  C   C238      1.0  0.00560  0.09531  0.34268  1.0000
  C   C239      1.0  0.00561  0.11812  0.34525  1.0000
  C   C240      1.0  0.99381  0.12421  0.41359  1.0000
  C   C241      1.0  0.99464  0.14700  0.41035  1.0000
  H   H145      1.0  0.98617  0.15110  0.46021  1.0000
  H   H146      1.0  0.02958  0.10429  0.45262  1.0000
  N   N49       1.0  0.98124  0.10865  0.48175  1.0000
  H   H147      1.0  0.97950  0.09262  0.48606  1.0000
  H   H148      1.0  0.97307  0.11288  0.52761  1.0000
  N   N50       1.0  0.03411  0.06552  0.47612  1.0000
  O   O49       1.0  0.05628  0.08119  0.47204  1.0000
  O   O50       1.0  0.02640  0.06603  0.55347  1.0000
  C   C242      1.0  0.96117  0.95911  0.34535  1.0000
  C   C243      1.0  0.94228  0.95371  0.40845  1.0000
  C   C244      1.0  0.92035  0.93092  0.40603  1.0000
  C   C245      1.0  0.91616  0.91260  0.34269  1.0000
  C   C246      1.0  0.89335  0.88980  0.34526  1.0000
  C   C247      1.0  0.88727  0.87191  0.41359  1.0000
  C   C248      1.0  0.86448  0.84995  0.41035  1.0000
  H   H149      1.0  0.86038  0.83737  0.46021  1.0000
  H   H150      1.0  0.90719  0.92760  0.45262  1.0000
  N   N51       1.0  0.90283  0.87490  0.48175  1.0000
  H   H151      1.0  0.91885  0.88919  0.48605  1.0000
  H   H152      1.0  0.89860  0.86249  0.52760  1.0000
  N   N52       1.0  0.94595  0.97089  0.47613  1.0000
  O   O51       1.0  0.93028  0.97739  0.47204  1.0000
  O   O52       1.0  0.94544  0.96267  0.55348  1.0000
  C   C249      1.0  0.05237  0.00436  0.34533  1.0000
  C   C250      1.0  0.05776  0.99088  0.40844  1.0000
  C   C251      1.0  0.08056  0.99174  0.40601  1.0000
  C   C252      1.0  0.09888  0.00587  0.34268  1.0000
  C   C253      1.0  0.12168  0.00586  0.34524  1.0000
  C   C254      1.0  0.13957  0.01767  0.41359  1.0000
  C   C255      1.0  0.16152  0.01683  0.41035  1.0000
  H   H153      1.0  0.17411  0.02531  0.46021  1.0000
  H   H154      1.0  0.08388  0.98189  0.45262  1.0000
  N   N53       1.0  0.13658  0.03023  0.48175  1.0000
  H   H155      1.0  0.12229  0.03197  0.48605  1.0000
  H   H156      1.0  0.14899  0.03841  0.52761  1.0000
  N   N54       1.0  0.04058  0.97737  0.47613  1.0000
  O   O53       1.0  0.03409  0.95520  0.47205  1.0000
  O   O54       1.0  0.04881  0.98508  0.55347  1.0000
  C   C256      1.0  0.10848  0.34704  0.40399  1.0000
  C   C257      1.0  0.12746  0.37163  0.40290  1.0000
  H   H157      1.0  0.12711  0.38332  0.44949  1.0000
  C   C258      1.0  0.05110  0.25575  0.33358  1.0000
  C   C259      1.0  0.06860  0.26457  0.40363  1.0000
  C   C260      1.0  0.08780  0.28908  0.40220  1.0000
  H   H158      1.0  0.09997  0.29521  0.45426  1.0000
  N   N55       1.0  0.09023  0.34033  0.46496  1.0000
  H   H159      1.0  0.09012  0.35195  0.50728  1.0000
  H   H160      1.0  0.07638  0.32398  0.46686  1.0000
  N   N56       1.0  0.06585  0.24906  0.47647  1.0000
  O   O55       1.0  0.06280  0.25713  0.54953  1.0000
  O   O56       1.0  0.08398  0.24627  0.48392  1.0000
  C   C261      1.0  0.66444  0.76374  0.40398  1.0000
  C   C262      1.0  0.63985  0.75813  0.40289  1.0000
  H   H161      1.0  0.62817  0.74610  0.44950  1.0000
  C   C263      1.0  0.75572  0.79760  0.33357  1.0000
  C   C264      1.0  0.74692  0.80632  0.40355  1.0000
  C   C265      1.0  0.72240  0.80101  0.40214  1.0000
  H   H162      1.0  0.71628  0.80709  0.45414  1.0000
  N   N57       1.0  0.67115  0.75221  0.46494  1.0000
  H   H163      1.0  0.65953  0.74047  0.50727  1.0000
  H   H164      1.0  0.68751  0.75471  0.46685  1.0000
  N   N58       1.0  0.76243  0.81911  0.47635  1.0000
  O   O57       1.0  0.75437  0.80803  0.54946  1.0000
  O   O58       1.0  0.76523  0.84004  0.48365  1.0000
  C   C266      1.0  0.24773  0.90299  0.40397  1.0000
  C   C267      1.0  0.25335  0.88401  0.40288  1.0000
  H   H165      1.0  0.26538  0.88437  0.44947  1.0000
  C   C268      1.0  0.21381  0.96036  0.33356  1.0000
  C   C269      1.0  0.20514  0.94287  0.40362  1.0000
  C   C270      1.0  0.21045  0.92367  0.40219  1.0000
  H   H166      1.0  0.20441  0.91150  0.45425  1.0000
  N   N59       1.0  0.25926  0.92124  0.46494  1.0000
  H   H167      1.0  0.27100  0.92136  0.50726  1.0000
  H   H168      1.0  0.25676  0.93509  0.46685  1.0000
  N   N60       1.0  0.19238  0.94562  0.47647  1.0000
  O   O59       1.0  0.20350  0.94867  0.54952  1.0000
  O   O60       1.0  0.17146  0.92749  0.48392  1.0000
  C   C271      1.0  0.38296  0.14496  0.34472  1.0000
  C   C272      1.0  0.36639  0.14494  0.40905  1.0000
  C   C273      1.0  0.34167  0.12632  0.40737  1.0000
  C   C274      1.0  0.33268  0.10705  0.34456  1.0000
  C   C275      1.0  0.30773  0.08805  0.35117  1.0000
  C   C276      1.0  0.29908  0.07062  0.42202  1.0000
  C   C277      1.0  0.27446  0.05174  0.42116  1.0000
  H   H169      1.0  0.26853  0.03892  0.47110  1.0000
  H   H170      1.0  0.33016  0.12652  0.45512  1.0000
  N   N61       1.0  0.31372  0.07075  0.48917  1.0000
  H   H171      1.0  0.33091  0.08264  0.49144  1.0000
  H   H172      1.0  0.30753  0.05846  0.53623  1.0000
  N   N62       1.0  0.37492  0.16286  0.47739  1.0000
  O   O61       1.0  0.36430  0.17503  0.47500  1.0000
  O   O62       1.0  0.37222  0.15366  0.55435  1.0000
  C   C278      1.0  0.77117  0.62850  0.34474  1.0000
  C   C279      1.0  0.78772  0.64506  0.40905  1.0000
  C   C280      1.0  0.79382  0.66979  0.40737  1.0000
  C   C281      1.0  0.78354  0.67878  0.34454  1.0000
  C   C282      1.0  0.78951  0.70374  0.35114  1.0000
  C   C283      1.0  0.78075  0.71240  0.42204  1.0000
  C   C284      1.0  0.78651  0.73702  0.42122  1.0000
  H   H173      1.0  0.77962  0.74296  0.47112  1.0000
  H   H174      1.0  0.80554  0.68130  0.45508  1.0000
  N   N63       1.0  0.76624  0.69776  0.48919  1.0000
  H   H175      1.0  0.76091  0.68056  0.49142  1.0000
  H   H176      1.0  0.76015  0.70396  0.53628  1.0000
  N   N64       1.0  0.79711  0.63654  0.47739  1.0000
  O   O63       1.0  0.81990  0.64716  0.47497  1.0000
  O   O64       1.0  0.79063  0.63925  0.55435  1.0000
  C   C285      1.0  0.86650  0.24030  0.34471  1.0000
  C   C286      1.0  0.86652  0.22375  0.40903  1.0000
  C   C287      1.0  0.88515  0.21764  0.40734  1.0000
  C   C288      1.0  0.90442  0.22793  0.34454  1.0000
  C   C289      1.0  0.92341  0.22197  0.35114  1.0000
  C   C290      1.0  0.94084  0.23075  0.42200  1.0000
  C   C291      1.0  0.95972  0.22501  0.42114  1.0000
  H   H177      1.0  0.97254  0.23189  0.47108  1.0000
  H   H178      1.0  0.88495  0.20593  0.45509  1.0000
  N   N65       1.0  0.94071  0.24526  0.48915  1.0000
  H   H179      1.0  0.92883  0.25057  0.49142  1.0000
  H   H180      1.0  0.95301  0.25136  0.53622  1.0000
  N   N66       1.0  0.84860  0.21435  0.47737  1.0000
  O   O65       1.0  0.83643  0.19156  0.47496  1.0000
  O   O66       1.0  0.85780  0.22084  0.55433  1.0000
  C   C292      1.0  0.36288  0.50713  0.33506  1.0000
  C   C293      1.0  0.34978  0.51279  0.39862  1.0000
  C   C294      1.0  0.32405  0.50013  0.39589  1.0000
  C   C295      1.0  0.31077  0.48136  0.33311  1.0000
  C   C296      1.0  0.28480  0.46951  0.33447  1.0000
  C   C297      1.0  0.27034  0.45403  0.40573  1.0000
  C   C298      1.0  0.24475  0.44366  0.40178  1.0000
  H   H181      1.0  0.23439  0.43311  0.45420  1.0000
  H   H182      1.0  0.31489  0.50445  0.44218  1.0000
  N   N67       1.0  0.28010  0.44860  0.47741  1.0000
  H   H183      1.0  0.29740  0.45453  0.48204  1.0000
  H   H184      1.0  0.26990  0.43783  0.52508  1.0000
  N   N68       1.0  0.36246  0.53027  0.46643  1.0000
  O   O67       1.0  0.35830  0.54759  0.46230  1.0000
  O   O68       1.0  0.35701  0.52109  0.54374  1.0000
  C   C299      1.0  0.50434  0.85804  0.33505  1.0000
  C   C300      1.0  0.49869  0.83929  0.39863  1.0000
  C   C301      1.0  0.51134  0.82621  0.39589  1.0000
  C   C302      1.0  0.53011  0.83170  0.33310  1.0000
  C   C303      1.0  0.54197  0.81759  0.33447  1.0000
  C   C304      1.0  0.55744  0.81860  0.40574  1.0000
  C   C305      1.0  0.56780  0.80337  0.40181  1.0000
  H   H185      1.0  0.57837  0.80358  0.45420  1.0000
  H   H186      1.0  0.50702  0.81273  0.44221  1.0000
  N   N69       1.0  0.56286  0.83378  0.47742  1.0000
  H   H187      1.0  0.55694  0.84516  0.48203  1.0000
  H   H188      1.0  0.57363  0.83436  0.52510  1.0000
  N   N70       1.0  0.48121  0.83449  0.46644  1.0000
  O   O69       1.0  0.46388  0.81300  0.46233  1.0000
  O   O70       1.0  0.49039  0.83822  0.54375  1.0000
  C   C306      1.0  0.15342  0.64860  0.33511  1.0000
  C   C307      1.0  0.17219  0.66170  0.39865  1.0000
  C   C308      1.0  0.18526  0.68743  0.39591  1.0000
  C   C309      1.0  0.17977  0.70071  0.33312  1.0000
  C   C310      1.0  0.19389  0.72668  0.33448  1.0000
  C   C311      1.0  0.19287  0.74114  0.40573  1.0000
  C   C312      1.0  0.20810  0.76673  0.40177  1.0000
  H   H189      1.0  0.20790  0.77708  0.45419  1.0000
  H   H190      1.0  0.19875  0.69659  0.44219  1.0000
  N   N71       1.0  0.17769  0.73138  0.47742  1.0000
  H   H191      1.0  0.16633  0.71408  0.48206  1.0000
  H   H192      1.0  0.17712  0.74158  0.52510  1.0000
  N   N72       1.0  0.17699  0.64902  0.46646  1.0000
  O   O71       1.0  0.19847  0.65318  0.46230  1.0000
  O   O72       1.0  0.17327  0.65448  0.54377  1.0000
  C   C313      1.0  0.47852  0.32203  0.41933  1.0000
  C   C314      1.0  0.49182  0.34774  0.41767  1.0000
  H   H193      1.0  0.48793  0.35701  0.46496  1.0000
  C   C315      1.0  0.45036  0.23129  0.35631  1.0000
  C   C316      1.0  0.46574  0.24569  0.42739  1.0000
  C   C317      1.0  0.47631  0.27123  0.42413  1.0000
  H   H194      1.0  0.48760  0.28134  0.47545  1.0000
  N   N73       1.0  0.46069  0.31085  0.48210  1.0000
  H   H195      1.0  0.45711  0.32014  0.52525  1.0000
  H   H196      1.0  0.45023  0.29334  0.48365  1.0000
  N   N74       1.0  0.47008  0.23431  0.50141  1.0000
  O   O73       1.0  0.46247  0.23838  0.57364  1.0000
  O   O74       1.0  0.49227  0.24129  0.51003  1.0000
  C   C318      1.0  0.85269  0.53295  0.41933  1.0000
  C   C319      1.0  0.86509  0.51965  0.41767  1.0000
  H   H197      1.0  0.87826  0.52355  0.46493  1.0000
  C   C320      1.0  0.79011  0.56111  0.35632  1.0000
  C   C321      1.0  0.78912  0.54572  0.42739  1.0000
  C   C322      1.0  0.80410  0.53516  0.42413  1.0000
  H   H198      1.0  0.80292  0.52387  0.47544  1.0000
  N   N75       1.0  0.85933  0.55078  0.48210  1.0000
  H   H199      1.0  0.87221  0.55436  0.52526  1.0000
  H   H200      1.0  0.85229  0.56124  0.48365  1.0000
  N   N76       1.0  0.77341  0.54138  0.50141  1.0000
  O   O75       1.0  0.78508  0.54899  0.57365  1.0000
  O   O76       1.0  0.75820  0.51919  0.51002  1.0000
  C   C323      1.0  0.68944  0.15878  0.41935  1.0000
  C   C324      1.0  0.66373  0.14638  0.41769  1.0000
  H   H201      1.0  0.65446  0.13321  0.46497  1.0000
  C   C325      1.0  0.78017  0.22136  0.35629  1.0000
  C   C326      1.0  0.76578  0.22235  0.42739  1.0000
  C   C327      1.0  0.74024  0.20737  0.42413  1.0000
  H   H202      1.0  0.73013  0.20855  0.47546  1.0000
  N   N77       1.0  0.70062  0.15214  0.48211  1.0000
  H   H203      1.0  0.69133  0.13926  0.52527  1.0000
  H   H204      1.0  0.71813  0.15918  0.48366  1.0000
  N   N78       1.0  0.77716  0.23806  0.50141  1.0000
  O   O77       1.0  0.77309  0.22638  0.57364  1.0000
  O   O78       1.0  0.77017  0.25327  0.51004  1.0000
  C   C328      1.0  0.17576  0.50715  0.40836  1.0000
  C   C329      1.0  0.17932  0.48688  0.40698  1.0000
  H   H205      1.0  0.19102  0.48625  0.45282  1.0000
  C   C330      1.0  0.14134  0.56458  0.34850  1.0000
  C   C331      1.0  0.13480  0.54776  0.42043  1.0000
  C   C332      1.0  0.14125  0.52950  0.41655  1.0000
  H   H206      1.0  0.13614  0.51733  0.46850  1.0000
  N   N79       1.0  0.18852  0.52515  0.46910  1.0000
  H   H207      1.0  0.19978  0.52423  0.51105  1.0000
  H   H208      1.0  0.18770  0.53999  0.47022  1.0000
  N   N80       1.0  0.12211  0.54960  0.49566  1.0000
  O   O79       1.0  0.13422  0.55370  0.56679  1.0000
  O   O80       1.0  0.10192  0.53063  0.50622  1.0000
  C   C333      1.0  0.50434  0.67092  0.40837  1.0000
  C   C334      1.0  0.52460  0.69473  0.40697  1.0000
  H   H209      1.0  0.52523  0.70706  0.45284  1.0000
  C   C335      1.0  0.44691  0.57906  0.34843  1.0000
  C   C336      1.0  0.46371  0.58933  0.42039  1.0000
  C   C337      1.0  0.48198  0.61405  0.41652  1.0000
  H   H210      1.0  0.49415  0.62111  0.46849  1.0000
  N   N81       1.0  0.48633  0.66566  0.46911  1.0000
  H   H211      1.0  0.48725  0.67785  0.51107  1.0000
  H   H212      1.0  0.47149  0.65001  0.47023  1.0000
  N   N82       1.0  0.46187  0.57480  0.49562  1.0000
  O   O81       1.0  0.45776  0.58281  0.56675  1.0000
  O   O82       1.0  0.48084  0.57358  0.50620  1.0000
  C   C338      1.0  0.34056  0.83572  0.40836  1.0000
  C   C339      1.0  0.31674  0.83216  0.40697  1.0000
  H   H213      1.0  0.30441  0.82046  0.45282  1.0000
  C   C340      1.0  0.43242  0.87015  0.34846  1.0000
  C   C341      1.0  0.42215  0.87669  0.42040  1.0000
  C   C342      1.0  0.39743  0.87023  0.41653  1.0000
  H   H214      1.0  0.39037  0.87535  0.46847  1.0000
  N   N83       1.0  0.34582  0.82297  0.46911  1.0000
  H   H215      1.0  0.33363  0.81170  0.51107  1.0000
  H   H216      1.0  0.36147  0.82378  0.47022  1.0000
  N   N84       1.0  0.43668  0.88939  0.49562  1.0000
  O   O83       1.0  0.42867  0.87727  0.56676  1.0000
  O   O84       1.0  0.43789  0.90957  0.50617  1.0000
  C   C343      1.0  0.46992  0.16601  0.33960  1.0000
  C   C344      1.0  0.47108  0.14985  0.40263  1.0000
  C   C345      1.0  0.49093  0.14561  0.39998  1.0000
  C   C346      1.0  0.51019  0.15760  0.33786  1.0000
  C   C347      1.0  0.52960  0.15235  0.33948  1.0000
  C   C348      1.0  0.54666  0.15939  0.41128  1.0000
  C   C349      1.0  0.56476  0.15261  0.40776  1.0000
  H   H217      1.0  0.57656  0.15697  0.46064  1.0000
  H   H218      1.0  0.49151  0.13392  0.44595  1.0000
  N   N85       1.0  0.54638  0.17253  0.48312  1.0000
  H   H219      1.0  0.53490  0.17833  0.48748  1.0000
  H   H220      1.0  0.55832  0.17733  0.53116  1.0000
  N   N86       1.0  0.45297  0.13896  0.46980  1.0000
  O   O85       1.0  0.44211  0.11620  0.46475  1.0000
  O   O86       1.0  0.46174  0.14523  0.54744  1.0000
  C   C350      1.0  0.70526  0.54153  0.33963  1.0000
  C   C351      1.0  0.68795  0.54038  0.40264  1.0000
  C   C352      1.0  0.66385  0.52053  0.39998  1.0000
  C   C353      1.0  0.65658  0.50126  0.33787  1.0000
  C   C354      1.0  0.63192  0.48187  0.33948  1.0000
  C   C355      1.0  0.62190  0.46480  0.41127  1.0000
  C   C356      1.0  0.59701  0.44669  0.40773  1.0000
  H   H221      1.0  0.58957  0.43490  0.46064  1.0000
  H   H222      1.0  0.65158  0.51995  0.44593  1.0000
  N   N87       1.0  0.63531  0.46508  0.48313  1.0000
  H   H223      1.0  0.65259  0.47656  0.48751  1.0000
  H   H224      1.0  0.62817  0.45314  0.53116  1.0000
  N   N88       1.0  0.69516  0.55850  0.46980  1.0000
  O   O87       1.0  0.68326  0.56936  0.46473  1.0000
  O   O88       1.0  0.69266  0.54973  0.54744  1.0000
  C   C357      1.0  0.84545  0.30621  0.33960  1.0000
  C   C358      1.0  0.86161  0.32352  0.40262  1.0000
  C   C359      1.0  0.86586  0.34761  0.39997  1.0000
  C   C360      1.0  0.85387  0.35489  0.33786  1.0000
  C   C361      1.0  0.85912  0.37954  0.33947  1.0000
  C   C362      1.0  0.85208  0.38956  0.41128  1.0000
  C   C363      1.0  0.85887  0.41446  0.40776  1.0000
  H   H225      1.0  0.85451  0.42189  0.46065  1.0000
  H   H226      1.0  0.87755  0.35989  0.44594  1.0000
  N   N89       1.0  0.83895  0.37615  0.48313  1.0000
  H   H227      1.0  0.83315  0.35888  0.48750  1.0000
  H   H228      1.0  0.83416  0.38329  0.53118  1.0000
  N   N90       1.0  0.87251  0.31631  0.46979  1.0000
  O   O89       1.0  0.89528  0.32821  0.46474  1.0000
  O   O90       1.0  0.86624  0.31881  0.54743  1.0000
  C   C364      1.0  0.94261  0.51165  0.35125  1.0000
  C   C365      1.0  0.95713  0.50853  0.41644  1.0000
  C   C366      1.0  0.98263  0.52343  0.41265  1.0000
  C   C367      1.0  0.99403  0.54168  0.34660  1.0000
  C   C368      1.0  0.01985  0.55469  0.34442  1.0000
  C   C369      1.0  0.03423  0.57119  0.41328  1.0000
  C   C370      1.0  0.05977  0.58189  0.40836  1.0000
  H   H229      1.0  0.07023  0.59341  0.45862  1.0000
  H   H230      1.0  0.99298  0.52073  0.45899  1.0000
  N   N91       1.0  0.02446  0.57723  0.48324  1.0000
  H   H231      1.0  0.00712  0.57106  0.48805  1.0000
  H   H232      1.0  0.03468  0.58872  0.52919  1.0000
  N   N92       1.0  0.94605  0.49096  0.48543  1.0000
  O   O91       1.0  0.95278  0.47545  0.48323  1.0000
  O   O92       1.0  0.95064  0.50062  0.56200  1.0000
  C   C371      1.0  0.49981  0.43325  0.35125  1.0000
  C   C372      1.0  0.50293  0.45089  0.41643  1.0000
  C   C373      1.0  0.48802  0.46148  0.41263  1.0000
  C   C374      1.0  0.46979  0.45464  0.34654  1.0000
  C   C375      1.0  0.45676  0.46743  0.34437  1.0000
  C   C376      1.0  0.44028  0.46533  0.41326  1.0000
  C   C377      1.0  0.42959  0.48019  0.40838  1.0000
  H   H233      1.0  0.41807  0.47912  0.45864  1.0000
  H   H234      1.0  0.49073  0.47453  0.45895  1.0000
  N   N93       1.0  0.43424  0.44952  0.48323  1.0000
  H   H235      1.0  0.44040  0.43835  0.48799  1.0000
  H   H236      1.0  0.42276  0.44826  0.52920  1.0000
  N   N94       1.0  0.52050  0.45738  0.48543  1.0000
  O   O93       1.0  0.53601  0.47962  0.48323  1.0000
  O   O94       1.0  0.51084  0.45230  0.56200  1.0000
  C   C378      1.0  0.57822  0.06886  0.35125  1.0000
  C   C379      1.0  0.56058  0.05434  0.41644  1.0000
  C   C380      1.0  0.54999  0.02884  0.41265  1.0000
  C   C381      1.0  0.55684  0.01744  0.34660  1.0000
  C   C382      1.0  0.54403  0.99162  0.34442  1.0000
  C   C383      1.0  0.54615  0.97724  0.41328  1.0000
  C   C384      1.0  0.53130  0.95170  0.40835  1.0000
  H   H237      1.0  0.53236  0.94124  0.45862  1.0000
  H   H238      1.0  0.53694  0.01850  0.45899  1.0000
  N   N95       1.0  0.56195  0.98701  0.48325  1.0000
  H   H239      1.0  0.57312  0.00435  0.48805  1.0000
  H   H240      1.0  0.56322  0.97679  0.52919  1.0000
  N   N96       1.0  0.55409  0.06542  0.48543  1.0000
  O   O95       1.0  0.53185  0.05868  0.48322  1.0000
  O   O96       1.0  0.55916  0.06084  0.56200  1.0000
