data_image0
_chemical_formula_structural       C2H2C2H2C2H2C2H2C4HNO2C4HNO2C2H2C2H2C4HNO2C4HNO2C2H2C2H2C2H2C2H2C4HNO2C4HNO2C4HNO2C4HNO2C6H3C6H3C6H3C6H3C6H3C6H3C6H3C6H3C6H3C6H3C6H3C6H3C4HNO2C4HNO2C4HNO2C4HNO2C2H2C2H2C4HNO2C4HNO2C2H2C2H2C4HNO2C4HNO2C4HNO2C4HNO2C2H2C2H2C2H2C2H2C2H2C2H2C2H2C2H2C4HNO2C4HNO2C2H2C2H2C4HNO2C4HNO2C2H2C2H2C2H2C2H2C4HNO2C4HNO2C4HNO2C4HNO2C6H3C6H3C6H3C6H3C6H3C6H3C6H3C6H3C6H3C6H3C6H3C6H3C4HNO2C4HNO2C4HNO2C4HNO2C2H2C2H2C4HNO2C4HNO2C2H2C2H2C4HNO2C4HNO2C4HNO2C4HNO2C2H2C2H2C2H2C2H2
_chemical_formula_sum              "C360 H180 N36 O72"
_cell_length_a       42.9846
_cell_length_b       55.7279
_cell_length_c       14.8775
_cell_angle_alpha    90
_cell_angle_beta     90
_cell_angle_gamma    90

_space_group_name_H-M_alt    "P 1"
_space_group_IT_number       1

loop_
  _space_group_symop_operation_xyz
  'x, y, z'

loop_
  _atom_site_type_symbol
  _atom_site_label
  _atom_site_symmetry_multiplicity
  _atom_site_fract_x
  _atom_site_fract_y
  _atom_site_fract_z
  _atom_site_occupancy
  C   C1        1.0  0.23754  0.15343  0.32639  1.0000
  C   C2        1.0  0.27045  0.15321  0.32751  1.0000
  H   H1        1.0  0.22657  0.14212  0.28242  1.0000
  H   H2        1.0  0.28178  0.14176  0.28481  1.0000
  C   C3        1.0  0.27077  0.85480  0.32704  1.0000
  C   C4        1.0  0.23786  0.85494  0.32815  1.0000
  H   H3        1.0  0.28169  0.86606  0.28280  1.0000
  H   H4        1.0  0.22652  0.86638  0.28544  1.0000
  C   C5        1.0  0.48730  0.65344  0.32781  1.0000
  C   C6        1.0  0.02020  0.65320  0.32872  1.0000
  H   H5        1.0  0.47629  0.64223  0.28355  1.0000
  H   H6        1.0  0.03148  0.64183  0.28560  1.0000
  C   C7        1.0  0.02104  0.35479  0.32838  1.0000
  C   C8        1.0  0.48813  0.35495  0.32925  1.0000
  H   H7        1.0  0.03199  0.36596  0.28385  1.0000
  H   H8        1.0  0.47683  0.36630  0.28609  1.0000
  C   C9        1.0  0.06095  0.10776  0.30839  1.0000
  C   C10       1.0  0.05997  0.12904  0.25638  1.0000
  C   C11       1.0  0.08435  0.14606  0.25496  1.0000
  C   C12       1.0  0.11130  0.14258  0.30949  1.0000
  H   H9        1.0  0.04107  0.13225  0.21619  1.0000
  N   N1        1.0  0.08255  0.16545  0.19314  1.0000
  O   O1        1.0  0.05865  0.17812  0.20484  1.0000
  O   O2        1.0  0.08280  0.15823  0.11311  1.0000
  C   C13       1.0  0.44744  0.90043  0.30767  1.0000
  C   C14       1.0  0.44843  0.87911  0.25590  1.0000
  C   C15       1.0  0.42400  0.86213  0.25453  1.0000
  C   C16       1.0  0.39705  0.86565  0.30901  1.0000
  H   H10       1.0  0.46737  0.87585  0.21597  1.0000
  N   N2        1.0  0.42577  0.84272  0.19280  1.0000
  O   O3        1.0  0.44966  0.83003  0.20450  1.0000
  O   O4        1.0  0.42551  0.84992  0.11275  1.0000
  C   C17       1.0  0.39412  0.11987  0.31779  1.0000
  C   C18       1.0  0.41858  0.10284  0.31533  1.0000
  H   H11       1.0  0.37430  0.11598  0.28256  1.0000
  H   H12       1.0  0.41545  0.08752  0.27850  1.0000
  C   C19       1.0  0.11422  0.88821  0.31961  1.0000
  C   C20       1.0  0.08974  0.90522  0.31719  1.0000
  H   H13       1.0  0.13401  0.89212  0.28432  1.0000
  H   H14       1.0  0.09291  0.92057  0.28052  1.0000
  C   C21       1.0  0.31087  0.60774  0.30775  1.0000
  C   C22       1.0  0.30996  0.62897  0.25547  1.0000
  C   C23       1.0  0.33437  0.64597  0.25408  1.0000
  C   C24       1.0  0.36124  0.64253  0.30895  1.0000
  H   H15       1.0  0.29111  0.63215  0.21508  1.0000
  N   N3        1.0  0.33266  0.66531  0.19200  1.0000
  O   O5        1.0  0.30874  0.67799  0.20327  1.0000
  O   O6        1.0  0.33301  0.65801  0.11208  1.0000
  C   C25       1.0  0.19757  0.40044  0.30698  1.0000
  C   C26       1.0  0.19849  0.37916  0.25502  1.0000
  C   C27       1.0  0.17404  0.36219  0.25366  1.0000
  C   C28       1.0  0.14714  0.36570  0.30839  1.0000
  H   H16       1.0  0.21741  0.37590  0.21496  1.0000
  N   N4        1.0  0.17573  0.34282  0.19174  1.0000
  O   O7        1.0  0.19963  0.33012  0.20311  1.0000
  O   O8        1.0  0.17541  0.35008  0.11177  1.0000
  C   C29       1.0  0.14396  0.61986  0.31712  1.0000
  C   C30       1.0  0.16844  0.60284  0.31457  1.0000
  H   H17       1.0  0.12409  0.61592  0.28217  1.0000
  H   H18       1.0  0.16528  0.58749  0.27795  1.0000
  C   C31       1.0  0.36441  0.38822  0.31905  1.0000
  C   C32       1.0  0.33992  0.40522  0.31661  1.0000
  H   H19       1.0  0.38424  0.39216  0.28397  1.0000
  H   H20       1.0  0.34310  0.42059  0.28014  1.0000
  C   C33       1.0  0.13462  0.24215  0.25702  1.0000
  C   C34       1.0  0.12795  0.26689  0.25703  1.0000
  H   H21       1.0  0.13871  0.23375  0.19692  1.0000
  H   H22       1.0  0.12661  0.27580  0.19695  1.0000
  C   C35       1.0  0.37379  0.76608  0.25706  1.0000
  C   C36       1.0  0.38045  0.74134  0.25708  1.0000
  H   H23       1.0  0.36970  0.77448  0.19695  1.0000
  H   H24       1.0  0.38180  0.73243  0.19700  1.0000
  C   C37       1.0  0.38674  0.27895  0.34988  1.0000
  C   C38       1.0  0.38206  0.26677  0.26777  1.0000
  C   C39       1.0  0.37463  0.24197  0.26576  1.0000
  C   C40       1.0  0.37200  0.22914  0.34783  1.0000
  H   H25       1.0  0.38435  0.27592  0.20843  1.0000
  N   N5        1.0  0.36980  0.22969  0.18364  1.0000
  O   O9        1.0  0.39375  0.23022  0.13527  1.0000
  O   O10       1.0  0.34752  0.23858  0.14031  1.0000
  C   C41       1.0  0.12170  0.72910  0.34973  1.0000
  C   C42       1.0  0.12670  0.74126  0.26773  1.0000
  C   C43       1.0  0.13412  0.76606  0.26591  1.0000
  C   C44       1.0  0.13642  0.77890  0.34802  1.0000
  H   H26       1.0  0.12464  0.73210  0.20835  1.0000
  N   N6        1.0  0.13919  0.77834  0.18391  1.0000
  O   O11       1.0  0.11539  0.77780  0.13494  1.0000
  O   O12       1.0  0.16161  0.76946  0.14114  1.0000
  C   C45       1.0  0.00423  0.02982  0.33073  1.0000
  C   C46       1.0  0.00156  0.01688  0.24940  1.0000
  C   C47       1.0  0.00164  0.99138  0.24774  1.0000
  C   C48       1.0  0.00436  0.97834  0.32946  1.0000
  H   H27       1.0  0.99969  0.02608  0.19005  1.0000
  N   N7        1.0  0.99957  0.97858  0.16575  1.0000
  O   O13       1.0  0.97471  0.98325  0.12493  1.0000
  O   O14       1.0  0.02210  0.98334  0.11497  1.0000
  C   C49       1.0  0.25414  0.52982  0.33029  1.0000
  C   C50       1.0  0.25119  0.51688  0.24905  1.0000
  C   C51       1.0  0.25137  0.49138  0.24737  1.0000
  C   C52       1.0  0.25448  0.47834  0.32897  1.0000
  H   H28       1.0  0.24905  0.52607  0.18976  1.0000
  N   N8        1.0  0.24908  0.47858  0.16542  1.0000
  O   O15       1.0  0.22407  0.48320  0.12526  1.0000
  O   O16       1.0  0.27143  0.48339  0.11405  1.0000
  C   C53       1.0  0.14560  0.20467  0.33658  1.0000
  C   C54       1.0  0.17706  0.19909  0.34989  1.0000
  C   C55       1.0  0.18803  0.17516  0.35584  1.0000
  C   C56       1.0  0.16608  0.15658  0.33893  1.0000
  C   C57       1.0  0.13391  0.16118  0.32280  1.0000
  C   C58       1.0  0.12442  0.18565  0.32570  1.0000
  H   H29       1.0  0.17380  0.13925  0.33935  1.0000
  H   H30       1.0  0.10134  0.19001  0.32441  1.0000
  H   H31       1.0  0.19243  0.21310  0.35258  1.0000
  C   C59       1.0  0.36277  0.80356  0.33658  1.0000
  C   C60       1.0  0.33131  0.80913  0.34994  1.0000
  C   C61       1.0  0.32032  0.83305  0.35591  1.0000
  C   C62       1.0  0.34225  0.85164  0.33883  1.0000
  C   C63       1.0  0.37443  0.84706  0.32255  1.0000
  C   C64       1.0  0.38393  0.82258  0.32556  1.0000
  H   H32       1.0  0.33453  0.86897  0.33928  1.0000
  H   H33       1.0  0.40701  0.81823  0.32424  1.0000
  H   H34       1.0  0.31595  0.79510  0.35268  1.0000
  C   C65       1.0  0.36244  0.20473  0.35005  1.0000
  C   C66       1.0  0.33087  0.19915  0.36159  1.0000
  C   C67       1.0  0.31985  0.17515  0.36239  1.0000
  C   C68       1.0  0.34212  0.15648  0.35135  1.0000
  C   C69       1.0  0.37471  0.16126  0.35092  1.0000
  C   C70       1.0  0.38387  0.18574  0.34487  1.0000
  H   H35       1.0  0.33472  0.13913  0.35763  1.0000
  H   H36       1.0  0.40673  0.19006  0.33456  1.0000
  H   H37       1.0  0.31544  0.21317  0.36377  1.0000
  C   C71       1.0  0.14596  0.80332  0.35051  1.0000
  C   C72       1.0  0.17752  0.80891  0.36199  1.0000
  C   C73       1.0  0.18851  0.83293  0.36303  1.0000
  C   C74       1.0  0.16618  0.85157  0.35245  1.0000
  C   C75       1.0  0.13360  0.84678  0.35197  1.0000
  C   C76       1.0  0.12448  0.82229  0.34564  1.0000
  H   H38       1.0  0.17361  0.86892  0.35876  1.0000
  H   H39       1.0  0.10164  0.81795  0.33526  1.0000
  H   H40       1.0  0.19298  0.79491  0.36395  1.0000
  C   C77       1.0  0.39536  0.70463  0.33836  1.0000
  C   C78       1.0  0.42674  0.69903  0.35323  1.0000
  C   C79       1.0  0.43779  0.67510  0.35812  1.0000
  C   C80       1.0  0.41591  0.65655  0.33992  1.0000
  C   C81       1.0  0.38380  0.66115  0.32276  1.0000
  C   C82       1.0  0.37431  0.68563  0.32519  1.0000
  H   H41       1.0  0.42364  0.63923  0.34004  1.0000
  H   H42       1.0  0.35125  0.68999  0.32270  1.0000
  H   H43       1.0  0.44210  0.71304  0.35640  1.0000
  C   C83       1.0  0.11303  0.30360  0.33832  1.0000
  C   C84       1.0  0.08165  0.30920  0.35323  1.0000
  C   C85       1.0  0.07059  0.33313  0.35819  1.0000
  C   C86       1.0  0.09246  0.35167  0.33980  1.0000
  C   C87       1.0  0.12458  0.34709  0.32249  1.0000
  C   C88       1.0  0.13406  0.32260  0.32503  1.0000
  H   H44       1.0  0.08472  0.36900  0.33989  1.0000
  H   H45       1.0  0.15712  0.31824  0.32252  1.0000
  H   H46       1.0  0.06630  0.29518  0.35646  1.0000
  C   C89       1.0  0.11215  0.70471  0.35077  1.0000
  C   C90       1.0  0.08066  0.69907  0.36352  1.0000
  C   C91       1.0  0.06964  0.67505  0.36372  1.0000
  C   C92       1.0  0.09193  0.65644  0.35185  1.0000
  C   C93       1.0  0.12450  0.66124  0.35035  1.0000
  C   C94       1.0  0.13358  0.68574  0.34415  1.0000
  H   H47       1.0  0.08456  0.63906  0.35759  1.0000
  H   H48       1.0  0.15641  0.69009  0.33347  1.0000
  H   H49       1.0  0.06522  0.71307  0.36664  1.0000
  C   C95       1.0  0.39627  0.30333  0.35117  1.0000
  C   C96       1.0  0.42777  0.30899  0.36376  1.0000
  C   C97       1.0  0.43874  0.33301  0.36424  1.0000
  C   C98       1.0  0.41641  0.35162  0.35279  1.0000
  C   C99       1.0  0.38384  0.34679  0.35144  1.0000
  C   C100      1.0  0.37480  0.32229  0.34494  1.0000
  H   H50       1.0  0.42376  0.36899  0.35874  1.0000
  H   H51       1.0  0.35198  0.31792  0.33429  1.0000
  H   H52       1.0  0.44323  0.29500  0.36671  1.0000
  C   C101      1.0  0.03348  0.09362  0.31960  1.0000
  C   C102      1.0  0.50450  0.10554  0.32750  1.0000
  C   C103      1.0  0.47546  0.09384  0.33846  1.0000
  C   C104      1.0  0.47586  0.06843  0.33359  1.0000
  C   C105      1.0  0.00430  0.05545  0.33092  1.0000
  C   C106      1.0  0.03286  0.06827  0.32758  1.0000
  H   H53       1.0  0.45540  0.05917  0.33960  1.0000
  H   H54       1.0  0.05325  0.05888  0.32266  1.0000
  H   H55       1.0  0.50458  0.12388  0.32596  1.0000
  C   C107      1.0  0.47493  0.91452  0.31913  1.0000
  C   C108      1.0  0.00383  0.90254  0.32816  1.0000
  C   C109      1.0  0.03286  0.91421  0.33992  1.0000
  C   C110      1.0  0.03256  0.93962  0.33523  1.0000
  C   C111      1.0  0.50419  0.95266  0.33108  1.0000
  C   C112      1.0  0.47563  0.93989  0.32626  1.0000
  H   H56       1.0  0.05302  0.94885  0.34183  1.0000
  H   H57       1.0  0.45528  0.94931  0.32032  1.0000
  H   H58       1.0  0.00370  0.88421  0.32675  1.0000
  C   C113      1.0  0.28338  0.59361  0.31888  1.0000
  C   C114      1.0  0.25440  0.60555  0.32645  1.0000
  C   C115      1.0  0.22535  0.59386  0.33746  1.0000
  C   C116      1.0  0.22574  0.56844  0.33262  1.0000
  C   C117      1.0  0.25419  0.55545  0.33042  1.0000
  C   C118      1.0  0.28275  0.56827  0.32719  1.0000
  H   H59       1.0  0.20529  0.55918  0.33888  1.0000
  H   H60       1.0  0.30315  0.55887  0.32251  1.0000
  H   H61       1.0  0.25449  0.62388  0.32473  1.0000
  C   C119      1.0  0.22508  0.41452  0.31839  1.0000
  C   C120      1.0  0.25398  0.40253  0.32727  1.0000
  C   C121      1.0  0.28301  0.41418  0.33917  1.0000
  C   C122      1.0  0.28270  0.43961  0.33480  1.0000
  C   C123      1.0  0.25434  0.45266  0.33057  1.0000
  C   C124      1.0  0.22578  0.43988  0.32557  1.0000
  H   H62       1.0  0.30317  0.44882  0.34136  1.0000
  H   H63       1.0  0.20542  0.44929  0.31979  1.0000
  H   H64       1.0  0.25383  0.38420  0.32569  1.0000
  C   C125      1.0  0.28736  0.17113  0.37400  1.0000
  C   C126      1.0  0.27000  0.18638  0.43115  1.0000
  C   C127      1.0  0.23720  0.18650  0.43260  1.0000
  C   C128      1.0  0.22032  0.17128  0.37298  1.0000
  H   H65       1.0  0.28139  0.19783  0.47380  1.0000
  N   N9        1.0  0.22144  0.20083  0.49722  1.0000
  O   O17       1.0  0.22847  0.22270  0.49147  1.0000
  O   O18       1.0  0.22711  0.19388  0.57588  1.0000
  C   C129      1.0  0.22099  0.83697  0.37452  1.0000
  C   C130      1.0  0.23840  0.82173  0.43154  1.0000
  C   C131      1.0  0.27120  0.82165  0.43290  1.0000
  C   C132      1.0  0.28804  0.83691  0.37328  1.0000
  H   H66       1.0  0.22705  0.81024  0.47414  1.0000
  N   N10       1.0  0.28701  0.80731  0.49739  1.0000
  O   O19       1.0  0.28001  0.78543  0.49156  1.0000
  O   O20       1.0  0.28136  0.81422  0.57611  1.0000
  C   C133      1.0  0.03717  0.67100  0.37564  1.0000
  C   C134      1.0  0.01986  0.68615  0.43328  1.0000
  C   C135      1.0  0.48706  0.68629  0.43491  1.0000
  C   C136      1.0  0.47010  0.67119  0.37501  1.0000
  H   H67       1.0  0.03128  0.69751  0.47617  1.0000
  N   N11       1.0  0.47138  0.70052  0.50001  1.0000
  O   O21       1.0  0.47842  0.72240  0.49467  1.0000
  O   O22       1.0  0.47716  0.69345  0.57845  1.0000
  C   C137      1.0  0.47121  0.33710  0.37607  1.0000
  C   C138      1.0  0.48857  0.32196  0.43359  1.0000
  C   C139      1.0  0.02137  0.32187  0.43517  1.0000
  C   C140      1.0  0.03829  0.33701  0.37532  1.0000
  H   H68       1.0  0.47718  0.31056  0.47642  1.0000
  N   N12       1.0  0.03709  0.30764  0.50018  1.0000
  O   O23       1.0  0.03009  0.28575  0.49477  1.0000
  O   O24       1.0  0.03132  0.31468  0.57866  1.0000
  C   C141      1.0  0.11399  0.11979  0.35215  1.0000
  C   C142      1.0  0.08965  0.10268  0.35079  1.0000
  H   H69       1.0  0.13259  0.11616  0.39279  1.0000
  H   H70       1.0  0.09181  0.08769  0.39005  1.0000
  C   C143      1.0  0.39433  0.88849  0.35126  1.0000
  C   C144      1.0  0.41872  0.90557  0.34986  1.0000
  H   H71       1.0  0.37578  0.89213  0.39206  1.0000
  H   H72       1.0  0.41656  0.92057  0.38908  1.0000
  C   C145      1.0  0.44826  0.10820  0.35138  1.0000
  C   C146      1.0  0.45036  0.12976  0.40146  1.0000
  C   C147      1.0  0.42606  0.14676  0.40630  1.0000
  C   C148      1.0  0.39790  0.14289  0.35764  1.0000
  H   H73       1.0  0.46999  0.13315  0.43840  1.0000
  N   N13       1.0  0.42917  0.16638  0.46671  1.0000
  O   O25       1.0  0.45259  0.17913  0.44967  1.0000
  O   O26       1.0  0.43078  0.15949  0.54703  1.0000
  C   C149      1.0  0.06004  0.89982  0.35294  1.0000
  C   C150      1.0  0.05788  0.87820  0.40259  1.0000
  C   C151      1.0  0.08217  0.86120  0.40727  1.0000
  C   C152      1.0  0.11039  0.86512  0.35890  1.0000
  H   H74       1.0  0.03819  0.87476  0.43921  1.0000
  N   N14       1.0  0.07900  0.84149  0.46724  1.0000
  O   O27       1.0  0.05558  0.82876  0.44973  1.0000
  O   O28       1.0  0.07731  0.84825  0.54769  1.0000
  C   C153      1.0  0.36385  0.61978  0.35193  1.0000
  C   C154      1.0  0.33951  0.60267  0.35049  1.0000
  H   H75       1.0  0.38238  0.61618  0.39291  1.0000
  H   H76       1.0  0.34161  0.58772  0.38999  1.0000
  C   C155      1.0  0.14450  0.38851  0.35090  1.0000
  C   C156      1.0  0.16889  0.40558  0.34940  1.0000
  H   H77       1.0  0.12601  0.39213  0.39197  1.0000
  H   H78       1.0  0.16679  0.42055  0.38880  1.0000
  C   C157      1.0  0.19815  0.60823  0.35031  1.0000
  C   C158      1.0  0.20028  0.62983  0.40020  1.0000
  C   C159      1.0  0.17596  0.64681  0.40512  1.0000
  C   C160      1.0  0.14775  0.64291  0.35673  1.0000
  H   H79       1.0  0.21992  0.63323  0.43702  1.0000
  N   N15       1.0  0.17911  0.66644  0.46545  1.0000
  O   O29       1.0  0.20251  0.67921  0.44821  1.0000
  O   O30       1.0  0.18079  0.65957  0.54578  1.0000
  C   C161      1.0  0.31018  0.39979  0.35212  1.0000
  C   C162      1.0  0.30800  0.37813  0.40154  1.0000
  C   C163      1.0  0.33232  0.36114  0.40625  1.0000
  C   C164      1.0  0.36057  0.36510  0.35811  1.0000
  H   H80       1.0  0.28830  0.37466  0.43804  1.0000
  N   N16       1.0  0.32913  0.34141  0.46615  1.0000
  O   O31       1.0  0.30573  0.32868  0.44850  1.0000
  O   O32       1.0  0.32738  0.34817  0.54661  1.0000
  C   C165      1.0  0.12256  0.27917  0.33850  1.0000
  C   C166      1.0  0.12384  0.26613  0.41984  1.0000
  C   C167      1.0  0.13110  0.24131  0.42095  1.0000
  C   C168      1.0  0.13605  0.22910  0.33841  1.0000
  H   H81       1.0  0.11974  0.27477  0.47943  1.0000
  N   N17       1.0  0.13352  0.22844  0.50275  1.0000
  O   O33       1.0  0.10843  0.22893  0.54605  1.0000
  O   O34       1.0  0.15481  0.23677  0.55152  1.0000
  C   C169      1.0  0.38583  0.72906  0.33855  1.0000
  C   C170      1.0  0.38452  0.74210  0.41988  1.0000
  C   C171      1.0  0.37727  0.76692  0.42099  1.0000
  C   C172      1.0  0.37234  0.77913  0.33844  1.0000
  H   H82       1.0  0.38862  0.73346  0.47948  1.0000
  N   N18       1.0  0.37483  0.77979  0.50279  1.0000
  O   O35       1.0  0.39991  0.77930  0.54611  1.0000
  O   O36       1.0  0.35354  0.77146  0.55154  1.0000
  C   C173      1.0  0.37667  0.24138  0.42995  1.0000
  C   C174      1.0  0.38427  0.26592  0.43094  1.0000
  H   H83       1.0  0.37457  0.23248  0.48991  1.0000
  H   H84       1.0  0.38788  0.27425  0.49141  1.0000
  C   C175      1.0  0.13145  0.76668  0.43001  1.0000
  C   C176      1.0  0.12385  0.74214  0.43083  1.0000
  H   H85       1.0  0.13331  0.77559  0.49002  1.0000
  H   H86       1.0  0.12000  0.73382  0.49119  1.0000
  C   C177      1.0  0.00721  0.99133  0.41076  1.0000
  C   C178      1.0  0.00716  0.01665  0.41141  1.0000
  H   H87       1.0  0.00921  0.98238  0.47063  1.0000
  H   H88       1.0  0.00920  0.02545  0.47154  1.0000
  C   C179      1.0  0.25765  0.49133  0.41016  1.0000
  C   C180      1.0  0.25751  0.51665  0.41084  1.0000
  H   H89       1.0  0.25992  0.48239  0.46996  1.0000
  H   H90       1.0  0.25978  0.52546  0.47089  1.0000
  C   C181      1.0  0.73754  0.15343  0.32639  1.0000
  C   C182      1.0  0.77045  0.15321  0.32751  1.0000
  H   H91       1.0  0.72657  0.14212  0.28242  1.0000
  H   H92       1.0  0.78177  0.14176  0.28481  1.0000
  C   C183      1.0  0.77077  0.85480  0.32704  1.0000
  C   C184      1.0  0.73786  0.85494  0.32815  1.0000
  H   H93       1.0  0.78169  0.86606  0.28280  1.0000
  H   H94       1.0  0.72652  0.86638  0.28544  1.0000
  C   C185      1.0  0.98730  0.65344  0.32781  1.0000
  C   C186      1.0  0.52020  0.65320  0.32872  1.0000
  H   H95       1.0  0.97629  0.64223  0.28355  1.0000
  H   H96       1.0  0.53148  0.64183  0.28559  1.0000
  C   C187      1.0  0.52104  0.35479  0.32838  1.0000
  C   C188      1.0  0.98813  0.35495  0.32925  1.0000
  H   H97       1.0  0.53199  0.36596  0.28385  1.0000
  H   H98       1.0  0.97683  0.36630  0.28609  1.0000
  C   C189      1.0  0.56095  0.10776  0.30839  1.0000
  C   C190      1.0  0.55997  0.12904  0.25638  1.0000
  C   C191      1.0  0.58435  0.14606  0.25496  1.0000
  C   C192      1.0  0.61130  0.14258  0.30949  1.0000
  H   H99       1.0  0.54107  0.13225  0.21619  1.0000
  N   N19       1.0  0.58255  0.16545  0.19314  1.0000
  O   O37       1.0  0.55865  0.17812  0.20484  1.0000
  O   O38       1.0  0.58280  0.15823  0.11311  1.0000
  C   C193      1.0  0.94744  0.90043  0.30767  1.0000
  C   C194      1.0  0.94843  0.87911  0.25590  1.0000
  C   C195      1.0  0.92400  0.86213  0.25453  1.0000
  C   C196      1.0  0.89705  0.86565  0.30901  1.0000
  H   H100      1.0  0.96737  0.87585  0.21597  1.0000
  N   N20       1.0  0.92577  0.84272  0.19280  1.0000
  O   O39       1.0  0.94966  0.83003  0.20450  1.0000
  O   O40       1.0  0.92551  0.84992  0.11275  1.0000
  C   C197      1.0  0.89412  0.11987  0.31779  1.0000
  C   C198      1.0  0.91858  0.10284  0.31533  1.0000
  H   H101      1.0  0.87430  0.11598  0.28256  1.0000
  H   H102      1.0  0.91546  0.08752  0.27850  1.0000
  C   C199      1.0  0.61422  0.88821  0.31961  1.0000
  C   C200      1.0  0.58974  0.90522  0.31719  1.0000
  H   H103      1.0  0.63401  0.89212  0.28432  1.0000
  H   H104      1.0  0.59291  0.92057  0.28052  1.0000
  C   C201      1.0  0.81086  0.60774  0.30775  1.0000
  C   C202      1.0  0.80996  0.62897  0.25547  1.0000
  C   C203      1.0  0.83437  0.64597  0.25408  1.0000
  C   C204      1.0  0.86124  0.64253  0.30895  1.0000
  H   H105      1.0  0.79111  0.63215  0.21508  1.0000
  N   N21       1.0  0.83266  0.66531  0.19200  1.0000
  O   O41       1.0  0.80874  0.67799  0.20327  1.0000
  O   O42       1.0  0.83301  0.65801  0.11208  1.0000
  C   C205      1.0  0.69757  0.40044  0.30698  1.0000
  C   C206      1.0  0.69849  0.37916  0.25502  1.0000
  C   C207      1.0  0.67404  0.36219  0.25366  1.0000
  C   C208      1.0  0.64714  0.36570  0.30839  1.0000
  H   H106      1.0  0.71741  0.37590  0.21496  1.0000
  N   N22       1.0  0.67574  0.34282  0.19174  1.0000
  O   O43       1.0  0.69963  0.33012  0.20311  1.0000
  O   O44       1.0  0.67541  0.35008  0.11177  1.0000
  C   C209      1.0  0.64396  0.61986  0.31712  1.0000
  C   C210      1.0  0.66844  0.60284  0.31457  1.0000
  H   H107      1.0  0.62409  0.61593  0.28217  1.0000
  H   H108      1.0  0.66528  0.58749  0.27795  1.0000
  C   C211      1.0  0.86441  0.38822  0.31905  1.0000
  C   C212      1.0  0.83991  0.40522  0.31661  1.0000
  H   H109      1.0  0.88424  0.39216  0.28397  1.0000
  H   H110      1.0  0.84310  0.42059  0.28014  1.0000
  C   C213      1.0  0.63462  0.24215  0.25702  1.0000
  C   C214      1.0  0.62795  0.26689  0.25703  1.0000
  H   H111      1.0  0.63871  0.23375  0.19692  1.0000
  H   H112      1.0  0.62661  0.27580  0.19695  1.0000
  C   C215      1.0  0.87379  0.76608  0.25706  1.0000
  C   C216      1.0  0.88045  0.74134  0.25708  1.0000
  H   H113      1.0  0.86970  0.77448  0.19695  1.0000
  H   H114      1.0  0.88180  0.73243  0.19700  1.0000
  C   C217      1.0  0.88674  0.27895  0.34988  1.0000
  C   C218      1.0  0.88206  0.26677  0.26777  1.0000
  C   C219      1.0  0.87463  0.24197  0.26576  1.0000
  C   C220      1.0  0.87201  0.22914  0.34783  1.0000
  H   H115      1.0  0.88435  0.27592  0.20843  1.0000
  N   N23       1.0  0.86980  0.22969  0.18364  1.0000
  O   O45       1.0  0.89375  0.23022  0.13527  1.0000
  O   O46       1.0  0.84752  0.23858  0.14031  1.0000
  C   C221      1.0  0.62170  0.72910  0.34973  1.0000
  C   C222      1.0  0.62670  0.74126  0.26773  1.0000
  C   C223      1.0  0.63411  0.76606  0.26591  1.0000
  C   C224      1.0  0.63642  0.77890  0.34802  1.0000
  H   H116      1.0  0.62464  0.73210  0.20835  1.0000
  N   N24       1.0  0.63919  0.77834  0.18391  1.0000
  O   O47       1.0  0.61538  0.77780  0.13494  1.0000
  O   O48       1.0  0.66161  0.76946  0.14114  1.0000
  C   C225      1.0  0.50423  0.02982  0.33073  1.0000
  C   C226      1.0  0.50156  0.01688  0.24940  1.0000
  C   C227      1.0  0.50165  0.99138  0.24774  1.0000
  C   C228      1.0  0.50436  0.97834  0.32946  1.0000
  H   H117      1.0  0.49969  0.02608  0.19005  1.0000
  N   N25       1.0  0.49957  0.97858  0.16575  1.0000
  O   O49       1.0  0.47471  0.98325  0.12493  1.0000
  O   O50       1.0  0.52210  0.98334  0.11497  1.0000
  C   C229      1.0  0.75415  0.52982  0.33029  1.0000
  C   C230      1.0  0.75119  0.51688  0.24905  1.0000
  C   C231      1.0  0.75137  0.49138  0.24737  1.0000
  C   C232      1.0  0.75448  0.47834  0.32897  1.0000
  H   H118      1.0  0.74905  0.52607  0.18976  1.0000
  N   N26       1.0  0.74908  0.47858  0.16542  1.0000
  O   O51       1.0  0.72407  0.48320  0.12526  1.0000
  O   O52       1.0  0.77143  0.48339  0.11405  1.0000
  C   C233      1.0  0.64560  0.20467  0.33658  1.0000
  C   C234      1.0  0.67706  0.19909  0.34989  1.0000
  C   C235      1.0  0.68803  0.17516  0.35584  1.0000
  C   C236      1.0  0.66609  0.15658  0.33893  1.0000
  C   C237      1.0  0.63391  0.16118  0.32280  1.0000
  C   C238      1.0  0.62442  0.18565  0.32570  1.0000
  H   H119      1.0  0.67380  0.13925  0.33935  1.0000
  H   H120      1.0  0.60134  0.19001  0.32441  1.0000
  H   H121      1.0  0.69243  0.21310  0.35258  1.0000
  C   C239      1.0  0.86277  0.80356  0.33658  1.0000
  C   C240      1.0  0.83131  0.80913  0.34994  1.0000
  C   C241      1.0  0.82032  0.83305  0.35591  1.0000
  C   C242      1.0  0.84226  0.85164  0.33883  1.0000
  C   C243      1.0  0.87443  0.84706  0.32255  1.0000
  C   C244      1.0  0.88393  0.82258  0.32556  1.0000
  H   H122      1.0  0.83453  0.86897  0.33928  1.0000
  H   H123      1.0  0.90701  0.81823  0.32424  1.0000
  H   H124      1.0  0.81595  0.79510  0.35268  1.0000
  C   C245      1.0  0.86244  0.20473  0.35005  1.0000
  C   C246      1.0  0.83087  0.19915  0.36159  1.0000
  C   C247      1.0  0.81985  0.17515  0.36239  1.0000
  C   C248      1.0  0.84212  0.15648  0.35135  1.0000
  C   C249      1.0  0.87471  0.16126  0.35092  1.0000
  C   C250      1.0  0.88387  0.18574  0.34487  1.0000
  H   H125      1.0  0.83472  0.13913  0.35763  1.0000
  H   H126      1.0  0.90673  0.19006  0.33456  1.0000
  H   H127      1.0  0.81544  0.21317  0.36377  1.0000
  C   C251      1.0  0.64596  0.80332  0.35051  1.0000
  C   C252      1.0  0.67752  0.80891  0.36199  1.0000
  C   C253      1.0  0.68851  0.83293  0.36303  1.0000
  C   C254      1.0  0.66618  0.85157  0.35245  1.0000
  C   C255      1.0  0.63360  0.84678  0.35197  1.0000
  C   C256      1.0  0.62448  0.82229  0.34564  1.0000
  H   H128      1.0  0.67361  0.86892  0.35876  1.0000
  H   H129      1.0  0.60164  0.81795  0.33526  1.0000
  H   H130      1.0  0.69298  0.79491  0.36395  1.0000
  C   C257      1.0  0.89536  0.70463  0.33836  1.0000
  C   C258      1.0  0.92674  0.69903  0.35323  1.0000
  C   C259      1.0  0.93779  0.67510  0.35812  1.0000
  C   C260      1.0  0.91591  0.65655  0.33992  1.0000
  C   C261      1.0  0.88380  0.66115  0.32276  1.0000
  C   C262      1.0  0.87431  0.68563  0.32519  1.0000
  H   H131      1.0  0.92364  0.63923  0.34004  1.0000
  H   H132      1.0  0.85125  0.68999  0.32270  1.0000
  H   H133      1.0  0.94210  0.71304  0.35640  1.0000
  C   C263      1.0  0.61303  0.30360  0.33832  1.0000
  C   C264      1.0  0.58164  0.30920  0.35323  1.0000
  C   C265      1.0  0.57060  0.33313  0.35819  1.0000
  C   C266      1.0  0.59246  0.35167  0.33980  1.0000
  C   C267      1.0  0.62457  0.34709  0.32249  1.0000
  C   C268      1.0  0.63406  0.32260  0.32503  1.0000
  H   H134      1.0  0.58472  0.36900  0.33989  1.0000
  H   H135      1.0  0.65712  0.31824  0.32252  1.0000
  H   H136      1.0  0.56630  0.29518  0.35646  1.0000
  C   C269      1.0  0.61215  0.70471  0.35077  1.0000
  C   C270      1.0  0.58065  0.69907  0.36352  1.0000
  C   C271      1.0  0.56964  0.67505  0.36372  1.0000
  C   C272      1.0  0.59193  0.65644  0.35185  1.0000
  C   C273      1.0  0.62450  0.66124  0.35035  1.0000
  C   C274      1.0  0.63358  0.68574  0.34415  1.0000
  H   H137      1.0  0.58456  0.63906  0.35759  1.0000
  H   H138      1.0  0.65641  0.69009  0.33347  1.0000
  H   H139      1.0  0.56522  0.71307  0.36664  1.0000
  C   C275      1.0  0.89627  0.30333  0.35117  1.0000
  C   C276      1.0  0.92777  0.30899  0.36376  1.0000
  C   C277      1.0  0.93874  0.33301  0.36424  1.0000
  C   C278      1.0  0.91641  0.35162  0.35279  1.0000
  C   C279      1.0  0.88384  0.34679  0.35144  1.0000
  C   C280      1.0  0.87480  0.32229  0.34494  1.0000
  H   H140      1.0  0.92377  0.36899  0.35874  1.0000
  H   H141      1.0  0.85198  0.31792  0.33429  1.0000
  H   H142      1.0  0.94323  0.29500  0.36671  1.0000
  C   C281      1.0  0.53348  0.09362  0.31960  1.0000
  C   C282      1.0  0.00450  0.10554  0.32750  1.0000
  C   C283      1.0  0.97546  0.09384  0.33846  1.0000
  C   C284      1.0  0.97586  0.06843  0.33359  1.0000
  C   C285      1.0  0.50431  0.05545  0.33092  1.0000
  C   C286      1.0  0.53286  0.06827  0.32758  1.0000
  H   H143      1.0  0.95540  0.05917  0.33960  1.0000
  H   H144      1.0  0.55326  0.05888  0.32266  1.0000
  H   H145      1.0  0.00458  0.12388  0.32596  1.0000
  C   C287      1.0  0.97494  0.91452  0.31913  1.0000
  C   C288      1.0  0.50383  0.90254  0.32816  1.0000
  C   C289      1.0  0.53287  0.91421  0.33992  1.0000
  C   C290      1.0  0.53256  0.93962  0.33523  1.0000
  C   C291      1.0  0.00419  0.95266  0.33108  1.0000
  C   C292      1.0  0.97563  0.93989  0.32626  1.0000
  H   H146      1.0  0.55302  0.94885  0.34183  1.0000
  H   H147      1.0  0.95528  0.94931  0.32032  1.0000
  H   H148      1.0  0.50370  0.88421  0.32675  1.0000
  C   C293      1.0  0.78338  0.59361  0.31888  1.0000
  C   C294      1.0  0.75440  0.60555  0.32645  1.0000
  C   C295      1.0  0.72536  0.59386  0.33746  1.0000
  C   C296      1.0  0.72574  0.56844  0.33263  1.0000
  C   C297      1.0  0.75419  0.55545  0.33042  1.0000
  C   C298      1.0  0.78275  0.56827  0.32719  1.0000
  H   H149      1.0  0.70529  0.55918  0.33888  1.0000
  H   H150      1.0  0.80315  0.55887  0.32251  1.0000
  H   H151      1.0  0.75449  0.62388  0.32473  1.0000
  C   C299      1.0  0.72508  0.41452  0.31839  1.0000
  C   C300      1.0  0.75398  0.40253  0.32727  1.0000
  C   C301      1.0  0.78301  0.41418  0.33917  1.0000
  C   C302      1.0  0.78270  0.43961  0.33480  1.0000
  C   C303      1.0  0.75434  0.45266  0.33057  1.0000
  C   C304      1.0  0.72578  0.43988  0.32557  1.0000
  H   H152      1.0  0.80317  0.44882  0.34136  1.0000
  H   H153      1.0  0.70542  0.44929  0.31979  1.0000
  H   H154      1.0  0.75384  0.38420  0.32569  1.0000
  C   C305      1.0  0.78736  0.17113  0.37400  1.0000
  C   C306      1.0  0.77000  0.18638  0.43115  1.0000
  C   C307      1.0  0.73720  0.18650  0.43260  1.0000
  C   C308      1.0  0.72032  0.17128  0.37298  1.0000
  H   H155      1.0  0.78139  0.19783  0.47380  1.0000
  N   N27       1.0  0.72144  0.20083  0.49722  1.0000
  O   O53       1.0  0.72847  0.22270  0.49147  1.0000
  O   O54       1.0  0.72711  0.19388  0.57588  1.0000
  C   C309      1.0  0.72099  0.83697  0.37452  1.0000
  C   C310      1.0  0.73840  0.82173  0.43154  1.0000
  C   C311      1.0  0.77120  0.82165  0.43290  1.0000
  C   C312      1.0  0.78804  0.83691  0.37328  1.0000
  H   H156      1.0  0.72705  0.81024  0.47414  1.0000
  N   N28       1.0  0.78701  0.80731  0.49739  1.0000
  O   O55       1.0  0.78001  0.78543  0.49156  1.0000
  O   O56       1.0  0.78136  0.81422  0.57611  1.0000
  C   C313      1.0  0.53717  0.67100  0.37564  1.0000
  C   C314      1.0  0.51986  0.68615  0.43328  1.0000
  C   C315      1.0  0.98706  0.68629  0.43491  1.0000
  C   C316      1.0  0.97010  0.67119  0.37501  1.0000
  H   H157      1.0  0.53128  0.69751  0.47618  1.0000
  N   N29       1.0  0.97138  0.70052  0.50001  1.0000
  O   O57       1.0  0.97842  0.72240  0.49467  1.0000
  O   O58       1.0  0.97716  0.69345  0.57845  1.0000
  C   C317      1.0  0.97121  0.33710  0.37607  1.0000
  C   C318      1.0  0.98857  0.32196  0.43359  1.0000
  C   C319      1.0  0.52137  0.32187  0.43517  1.0000
  C   C320      1.0  0.53829  0.33701  0.37532  1.0000
  H   H158      1.0  0.97718  0.31056  0.47642  1.0000
  N   N30       1.0  0.53709  0.30764  0.50018  1.0000
  O   O59       1.0  0.53009  0.28575  0.49477  1.0000
  O   O60       1.0  0.53132  0.31468  0.57866  1.0000
  C   C321      1.0  0.61399  0.11979  0.35215  1.0000
  C   C322      1.0  0.58965  0.10268  0.35079  1.0000
  H   H159      1.0  0.63259  0.11616  0.39279  1.0000
  H   H160      1.0  0.59181  0.08769  0.39005  1.0000
  C   C323      1.0  0.89433  0.88849  0.35126  1.0000
  C   C324      1.0  0.91872  0.90557  0.34986  1.0000
  H   H161      1.0  0.87578  0.89213  0.39206  1.0000
  H   H162      1.0  0.91656  0.92057  0.38908  1.0000
  C   C325      1.0  0.94826  0.10820  0.35138  1.0000
  C   C326      1.0  0.95036  0.12976  0.40146  1.0000
  C   C327      1.0  0.92606  0.14676  0.40630  1.0000
  C   C328      1.0  0.89790  0.14289  0.35764  1.0000
  H   H163      1.0  0.96999  0.13315  0.43840  1.0000
  N   N31       1.0  0.92917  0.16638  0.46671  1.0000
  O   O61       1.0  0.95259  0.17913  0.44967  1.0000
  O   O62       1.0  0.93078  0.15949  0.54703  1.0000
  C   C329      1.0  0.56004  0.89982  0.35294  1.0000
  C   C330      1.0  0.55788  0.87820  0.40259  1.0000
  C   C331      1.0  0.58217  0.86120  0.40727  1.0000
  C   C332      1.0  0.61039  0.86512  0.35890  1.0000
  H   H164      1.0  0.53819  0.87476  0.43921  1.0000
  N   N32       1.0  0.57900  0.84149  0.46724  1.0000
  O   O63       1.0  0.55558  0.82876  0.44973  1.0000
  O   O64       1.0  0.57731  0.84825  0.54769  1.0000
  C   C333      1.0  0.86385  0.61978  0.35193  1.0000
  C   C334      1.0  0.83951  0.60267  0.35049  1.0000
  H   H165      1.0  0.88238  0.61618  0.39291  1.0000
  H   H166      1.0  0.84161  0.58772  0.38999  1.0000
  C   C335      1.0  0.64450  0.38851  0.35090  1.0000
  C   C336      1.0  0.66889  0.40558  0.34940  1.0000
  H   H167      1.0  0.62601  0.39213  0.39197  1.0000
  H   H168      1.0  0.66679  0.42055  0.38880  1.0000
  C   C337      1.0  0.69815  0.60823  0.35031  1.0000
  C   C338      1.0  0.70028  0.62983  0.40020  1.0000
  C   C339      1.0  0.67597  0.64681  0.40512  1.0000
  C   C340      1.0  0.64775  0.64291  0.35673  1.0000
  H   H169      1.0  0.71993  0.63323  0.43702  1.0000
  N   N33       1.0  0.67911  0.66644  0.46545  1.0000
  O   O65       1.0  0.70251  0.67921  0.44821  1.0000
  O   O66       1.0  0.68079  0.65957  0.54578  1.0000
  C   C341      1.0  0.81018  0.39979  0.35212  1.0000
  C   C342      1.0  0.80801  0.37813  0.40154  1.0000
  C   C343      1.0  0.83232  0.36114  0.40625  1.0000
  C   C344      1.0  0.86057  0.36510  0.35811  1.0000
  H   H170      1.0  0.78831  0.37466  0.43804  1.0000
  N   N34       1.0  0.82913  0.34141  0.46615  1.0000
  O   O67       1.0  0.80573  0.32868  0.44850  1.0000
  O   O68       1.0  0.82738  0.34817  0.54661  1.0000
  C   C345      1.0  0.62255  0.27917  0.33850  1.0000
  C   C346      1.0  0.62384  0.26613  0.41984  1.0000
  C   C347      1.0  0.63110  0.24131  0.42095  1.0000
  C   C348      1.0  0.63605  0.22910  0.33841  1.0000
  H   H171      1.0  0.61974  0.27477  0.47943  1.0000
  N   N35       1.0  0.63352  0.22844  0.50275  1.0000
  O   O69       1.0  0.60843  0.22893  0.54605  1.0000
  O   O70       1.0  0.65481  0.23677  0.55152  1.0000
  C   C349      1.0  0.88583  0.72906  0.33855  1.0000
  C   C350      1.0  0.88452  0.74210  0.41988  1.0000
  C   C351      1.0  0.87727  0.76692  0.42099  1.0000
  C   C352      1.0  0.87234  0.77913  0.33844  1.0000
  H   H172      1.0  0.88862  0.73346  0.47948  1.0000
  N   N36       1.0  0.87483  0.77979  0.50279  1.0000
  O   O71       1.0  0.89991  0.77930  0.54611  1.0000
  O   O72       1.0  0.85354  0.77146  0.55154  1.0000
  C   C353      1.0  0.87667  0.24138  0.42995  1.0000
  C   C354      1.0  0.88427  0.26592  0.43094  1.0000
  H   H173      1.0  0.87457  0.23248  0.48991  1.0000
  H   H174      1.0  0.88788  0.27425  0.49141  1.0000
  C   C355      1.0  0.63145  0.76668  0.43001  1.0000
  C   C356      1.0  0.62385  0.74214  0.43083  1.0000
  H   H175      1.0  0.63331  0.77559  0.49002  1.0000
  H   H176      1.0  0.62000  0.73382  0.49119  1.0000
  C   C357      1.0  0.50721  0.99133  0.41076  1.0000
  C   C358      1.0  0.50716  0.01665  0.41141  1.0000
  H   H177      1.0  0.50921  0.98238  0.47063  1.0000
  H   H178      1.0  0.50920  0.02545  0.47154  1.0000
  C   C359      1.0  0.75765  0.49133  0.41016  1.0000
  C   C360      1.0  0.75751  0.51665  0.41084  1.0000
  H   H179      1.0  0.75992  0.48239  0.46996  1.0000
  H   H180      1.0  0.75978  0.52546  0.47089  1.0000
