data_image0
_chemical_formula_structural       NCHNCHNCHNCHNCHNCHC2NC2ONH2C2NC2ONH2C2NC2ONH2C2NC2ONH2C2NC2ONH2C2NC2ONH2C2NC2ONH2C2NC2ONH2C2NC2ONH2C2NC2ONH2C2NC2ONH2C2NC2ONH2CNCNCNC18H12CNCNCNC18H12CNCNCNC18H12CNCNCNC18H12CNCNCNC18H12CNCNCNC18H12CNCNCNC18H12CNCNCNC18H12CNCNCNC18H12CNCNCNC18H12CNCNCNC18H12CNCNCNC18H12C2NC2ONH2C2NC2ONH2C2NC2ONH2C2NC2ONH2C2NC2ONH2C2NC2ONH2NCHNCHNCHNCHNCHNCHNCHNCHNCHNCHNCHNCH
_chemical_formula_sum              "N90 C342 H198 O18"
_cell_length_a       74.2497
_cell_length_b       74.2498
_cell_length_c       15.0098
_cell_angle_alpha    90
_cell_angle_beta     90
_cell_angle_gamma    120

_space_group_name_H-M_alt    "P 1"
_space_group_IT_number       1

loop_
  _space_group_symop_operation_xyz
  'x, y, z'

loop_
  _atom_site_type_symbol
  _atom_site_label
  _atom_site_symmetry_multiplicity
  _atom_site_fract_x
  _atom_site_fract_y
  _atom_site_fract_z
  _atom_site_occupancy
  N   N1        1.0  0.18846  0.39809  0.28346  1.0000
  C   C1        1.0  0.17727  0.37713  0.27601  1.0000
  H   H1        1.0  0.16738  0.37071  0.22327  1.0000
  N   N2        1.0  0.58771  0.77677  0.28347  1.0000
  C   C2        1.0  0.60867  0.78654  0.27603  1.0000
  H   H2        1.0  0.61508  0.78309  0.22321  1.0000
  N   N3        1.0  0.20897  0.79736  0.28334  1.0000
  C   C3        1.0  0.19919  0.80854  0.27591  1.0000
  H   H3        1.0  0.20266  0.81843  0.22317  1.0000
  N   N4        1.0  0.80168  0.58341  0.28347  1.0000
  C   C4        1.0  0.81287  0.60437  0.27603  1.0000
  H   H4        1.0  0.82274  0.61079  0.22321  1.0000
  N   N5        1.0  0.40239  0.20468  0.28345  1.0000
  C   C5        1.0  0.38142  0.19489  0.27600  1.0000
  H   H5        1.0  0.37500  0.19837  0.22326  1.0000
  N   N6        1.0  0.78107  0.18413  0.28359  1.0000
  C   C6        1.0  0.79084  0.17294  0.27613  1.0000
  H   H6        1.0  0.78738  0.16307  0.22330  1.0000
  C   C7        1.0  0.18231  0.20061  0.31559  1.0000
  C   C8        1.0  0.20425  0.17907  0.32991  1.0000
  N   N7        1.0  0.19060  0.17546  0.26257  1.0000
  C   C9        1.0  0.17955  0.18539  0.25110  1.0000
  C   C10       1.0  0.16720  0.18030  0.17302  1.0000
  O   O1        1.0  0.15888  0.16077  0.14011  1.0000
  N   N8        1.0  0.16545  0.19445  0.12269  1.0000
  H   H7        1.0  0.17311  0.20920  0.13676  1.0000
  H   H8        1.0  0.15787  0.19029  0.06667  1.0000
  C   C11       1.0  0.78515  0.96817  0.31547  1.0000
  C   C12       1.0  0.80671  0.01164  0.32993  1.0000
  N   N9        1.0  0.81032  0.00161  0.26256  1.0000
  C   C13       1.0  0.80037  0.98063  0.25101  1.0000
  C   C14       1.0  0.80549  0.97337  0.17302  1.0000
  O   O2        1.0  0.82500  0.98462  0.13993  1.0000
  N   N10       1.0  0.79136  0.95744  0.12268  1.0000
  H   H9        1.0  0.77660  0.95040  0.13662  1.0000
  H   H10       1.0  0.79551  0.95410  0.06649  1.0000
  C   C15       1.0  0.01762  0.80348  0.31561  1.0000
  C   C16       1.0  0.97415  0.78156  0.33003  1.0000
  N   N11       1.0  0.98418  0.79520  0.26264  1.0000
  C   C17       1.0  0.00516  0.80624  0.25114  1.0000
  C   C18       1.0  0.01241  0.81858  0.17303  1.0000
  O   O3        1.0  0.00121  0.82690  0.14012  1.0000
  N   N12       1.0  0.02832  0.82032  0.12269  1.0000
  H   H11       1.0  0.03540  0.81267  0.13677  1.0000
  H   H12       1.0  0.03172  0.82790  0.06666  1.0000
  C   C19       1.0  0.80773  0.78086  0.31546  1.0000
  C   C20       1.0  0.78582  0.80242  0.32994  1.0000
  N   N13       1.0  0.79946  0.80603  0.26256  1.0000
  C   C21       1.0  0.81049  0.79608  0.25099  1.0000
  C   C22       1.0  0.82286  0.80119  0.17299  1.0000
  O   O4        1.0  0.83112  0.82070  0.13990  1.0000
  N   N14       1.0  0.82465  0.78705  0.12265  1.0000
  H   H13       1.0  0.81694  0.77230  0.13661  1.0000
  H   H14       1.0  0.83215  0.79121  0.06646  1.0000
  C   C23       1.0  0.20490  0.01334  0.31557  1.0000
  C   C24       1.0  0.18336  0.96987  0.32992  1.0000
  N   N15       1.0  0.17975  0.97991  0.26256  1.0000
  C   C25       1.0  0.18968  0.00088  0.25109  1.0000
  C   C26       1.0  0.18460  0.00814  0.17299  1.0000
  O   O5        1.0  0.16507  0.99694  0.14008  1.0000
  N   N16       1.0  0.19876  0.02405  0.12265  1.0000
  H   H15       1.0  0.21351  0.03114  0.13674  1.0000
  H   H16       1.0  0.19459  0.02746  0.06666  1.0000
  C   C27       1.0  0.97245  0.17806  0.31544  1.0000
  C   C28       1.0  0.01592  0.19998  0.32986  1.0000
  N   N17       1.0  0.00588  0.18633  0.26250  1.0000
  C   C29       1.0  0.98491  0.17530  0.25096  1.0000
  C   C30       1.0  0.97764  0.16292  0.17298  1.0000
  O   O6        1.0  0.98889  0.15466  0.13988  1.0000
  N   N18       1.0  0.96171  0.16112  0.12265  1.0000
  H   H17       1.0  0.95467  0.16884  0.13660  1.0000
  H   H18       1.0  0.95837  0.15363  0.06647  1.0000
  C   C31       1.0  0.21326  0.61885  0.33620  1.0000
  C   C32       1.0  0.21018  0.57981  0.32476  1.0000
  N   N19       1.0  0.20874  0.58985  0.25176  1.0000
  C   C33       1.0  0.20915  0.60837  0.25290  1.0000
  C   C34       1.0  0.20837  0.61644  0.16847  1.0000
  O   O7        1.0  0.19421  0.60321  0.10908  1.0000
  N   N20       1.0  0.22271  0.63549  0.13881  1.0000
  H   H19       1.0  0.23487  0.64465  0.17403  1.0000
  H   H20       1.0  0.22214  0.63953  0.07772  1.0000
  C   C35       1.0  0.36700  0.58081  0.33558  1.0000
  C   C36       1.0  0.40602  0.61677  0.32396  1.0000
  N   N21       1.0  0.39601  0.60528  0.25100  1.0000
  C   C37       1.0  0.37747  0.58718  0.25226  1.0000
  C   C38       1.0  0.36944  0.57818  0.16802  1.0000
  O   O8        1.0  0.38273  0.57733  0.10874  1.0000
  N   N22       1.0  0.35035  0.57331  0.13814  1.0000
  H   H21       1.0  0.34120  0.57639  0.17299  1.0000
  H   H22       1.0  0.34639  0.56872  0.07698  1.0000
  C   C39       1.0  0.40497  0.77258  0.33620  1.0000
  C   C40       1.0  0.36897  0.77562  0.32458  1.0000
  N   N23       1.0  0.38046  0.77705  0.25163  1.0000
  C   C41       1.0  0.39858  0.77665  0.25287  1.0000
  C   C42       1.0  0.40743  0.77742  0.16847  1.0000
  O   O9        1.0  0.40837  0.79158  0.10904  1.0000
  N   N24       1.0  0.41214  0.76308  0.13887  1.0000
  H   H23       1.0  0.40914  0.75092  0.17412  1.0000
  H   H24       1.0  0.41677  0.76365  0.07780  1.0000
  C   C43       1.0  0.77697  0.36270  0.33567  1.0000
  C   C44       1.0  0.78000  0.40172  0.32390  1.0000
  N   N25       1.0  0.78147  0.39170  0.25098  1.0000
  C   C45       1.0  0.78104  0.37317  0.25233  1.0000
  C   C46       1.0  0.78200  0.36512  0.16811  1.0000
  O   O10       1.0  0.79614  0.37839  0.10877  1.0000
  N   N26       1.0  0.76777  0.34603  0.13828  1.0000
  H   H25       1.0  0.75555  0.33688  0.17317  1.0000
  H   H26       1.0  0.76839  0.34205  0.07714  1.0000
  C   C47       1.0  0.62315  0.40067  0.33624  1.0000
  C   C48       1.0  0.58410  0.36468  0.32470  1.0000
  N   N27       1.0  0.59416  0.37616  0.25174  1.0000
  C   C49       1.0  0.61268  0.39428  0.25294  1.0000
  C   C50       1.0  0.62075  0.40312  0.16852  1.0000
  O   O11       1.0  0.60752  0.40406  0.10911  1.0000
  N   N28       1.0  0.63980  0.40784  0.13888  1.0000
  H   H27       1.0  0.64896  0.40483  0.17411  1.0000
  H   H28       1.0  0.64384  0.41245  0.07780  1.0000
  C   C51       1.0  0.58511  0.20886  0.33567  1.0000
  C   C52       1.0  0.62107  0.20581  0.32406  1.0000
  N   N29       1.0  0.60958  0.20433  0.25109  1.0000
  C   C53       1.0  0.59148  0.20477  0.25235  1.0000
  C   C54       1.0  0.58249  0.20381  0.16810  1.0000
  O   O12       1.0  0.58164  0.18967  0.10879  1.0000
  N   N30       1.0  0.57763  0.21803  0.13823  1.0000
  H   H29       1.0  0.58071  0.23026  0.17311  1.0000
  H   H30       1.0  0.57304  0.21741  0.07708  1.0000
  C   C55       1.0  0.13700  0.24401  0.33246  1.0000
  N   N31       1.0  0.14701  0.26515  0.33494  1.0000
  C   C56       1.0  0.13676  0.27602  0.33682  1.0000
  N   N32       1.0  0.11565  0.26493  0.33658  1.0000
  C   C57       1.0  0.10475  0.24381  0.33450  1.0000
  N   N33       1.0  0.11584  0.23377  0.33200  1.0000
  C   C58       1.0  0.14762  0.29814  0.33746  1.0000
  C   C59       1.0  0.16880  0.30971  0.36280  1.0000
  C   C60       1.0  0.17945  0.33158  0.36383  1.0000
  C   C61       1.0  0.16947  0.34271  0.33734  1.0000
  C   C62       1.0  0.14834  0.33118  0.31158  1.0000
  C   C63       1.0  0.13758  0.30932  0.31235  1.0000
  C   C64       1.0  0.14825  0.23309  0.32923  1.0000
  C   C65       1.0  0.17022  0.24374  0.33674  1.0000
  C   C66       1.0  0.18136  0.23303  0.33270  1.0000
  C   C67       1.0  0.17094  0.21129  0.31946  1.0000
  C   C68       1.0  0.14901  0.20049  0.31342  1.0000
  C   C69       1.0  0.13789  0.21122  0.31806  1.0000
  C   C70       1.0  0.08262  0.23279  0.33452  1.0000
  C   C71       1.0  0.07115  0.21174  0.30733  1.0000
  C   C72       1.0  0.04927  0.20104  0.30559  1.0000
  C   C73       1.0  0.03803  0.21082  0.33312  1.0000
  C   C74       1.0  0.04947  0.23180  0.36110  1.0000
  C   C75       1.0  0.07133  0.24261  0.36112  1.0000
  H   H31       1.0  0.19724  0.24135  0.33771  1.0000
  H   H32       1.0  0.17849  0.25952  0.34545  1.0000
  H   H33       1.0  0.14090  0.18467  0.30625  1.0000
  H   H34       1.0  0.12204  0.20274  0.31272  1.0000
  H   H35       1.0  0.07859  0.20401  0.28671  1.0000
  H   H36       1.0  0.04161  0.18585  0.28506  1.0000
  H   H37       1.0  0.07888  0.25779  0.38157  1.0000
  H   H38       1.0  0.04202  0.23968  0.37939  1.0000
  H   H39       1.0  0.12231  0.30168  0.29310  1.0000
  H   H40       1.0  0.14035  0.33856  0.29400  1.0000
  H   H41       1.0  0.19475  0.33932  0.38272  1.0000
  H   H42       1.0  0.17668  0.30233  0.38224  1.0000
  C   C76       1.0  0.74178  0.87946  0.33244  1.0000
  N   N34       1.0  0.72064  0.86833  0.33486  1.0000
  C   C77       1.0  0.70977  0.84720  0.33675  1.0000
  N   N35       1.0  0.72087  0.83719  0.33657  1.0000
  C   C78       1.0  0.74199  0.84741  0.33454  1.0000
  N   N36       1.0  0.75202  0.86854  0.33203  1.0000
  C   C79       1.0  0.68766  0.83593  0.33733  1.0000
  C   C80       1.0  0.67608  0.84553  0.36265  1.0000
  C   C81       1.0  0.65420  0.83429  0.36373  1.0000
  C   C82       1.0  0.64309  0.81319  0.33723  1.0000
  C   C83       1.0  0.65463  0.80361  0.31144  1.0000
  C   C84       1.0  0.67649  0.81472  0.31221  1.0000
  C   C85       1.0  0.75269  0.90163  0.32919  1.0000
  C   C86       1.0  0.74203  0.91294  0.33661  1.0000
  C   C87       1.0  0.75273  0.93479  0.33252  1.0000
  C   C88       1.0  0.77448  0.94612  0.31940  1.0000
  C   C89       1.0  0.78528  0.93500  0.31344  1.0000
  C   C90       1.0  0.77457  0.91315  0.31810  1.0000
  C   C91       1.0  0.75301  0.83631  0.33462  1.0000
  C   C92       1.0  0.77407  0.84589  0.30745  1.0000
  C   C93       1.0  0.78477  0.83471  0.30571  1.0000
  C   C94       1.0  0.77498  0.81368  0.33324  1.0000
  C   C95       1.0  0.75401  0.80415  0.36128  1.0000
  C   C96       1.0  0.74320  0.81520  0.36124  1.0000
  H   H43       1.0  0.74441  0.94234  0.33751  1.0000
  H   H44       1.0  0.72625  0.90542  0.34528  1.0000
  H   H45       1.0  0.80111  0.94272  0.30633  1.0000
  H   H46       1.0  0.78305  0.90578  0.31282  1.0000
  H   H47       1.0  0.78179  0.86106  0.28677  1.0000
  H   H48       1.0  0.79995  0.84224  0.28513  1.0000
  H   H49       1.0  0.72801  0.80757  0.38166  1.0000
  H   H50       1.0  0.74612  0.78882  0.37949  1.0000
  H   H51       1.0  0.68413  0.80710  0.29299  1.0000
  H   H52       1.0  0.64725  0.78823  0.29390  1.0000
  H   H53       1.0  0.64646  0.84184  0.38266  1.0000
  H   H54       1.0  0.68344  0.86078  0.38216  1.0000
  C   C97       1.0  0.10633  0.84879  0.33244  1.0000
  N   N37       1.0  0.11746  0.83878  0.33492  1.0000
  C   C98       1.0  0.13859  0.84903  0.33680  1.0000
  N   N38       1.0  0.14860  0.87014  0.33656  1.0000
  C   C99       1.0  0.13838  0.88104  0.33448  1.0000
  N   N39       1.0  0.11725  0.86995  0.33198  1.0000
  C   C100      1.0  0.14985  0.83818  0.33743  1.0000
  C   C101      1.0  0.14024  0.81700  0.36276  1.0000
  C   C102      1.0  0.15147  0.80635  0.36379  1.0000
  C   C103      1.0  0.17257  0.81633  0.33729  1.0000
  C   C104      1.0  0.18217  0.83746  0.31154  1.0000
  C   C105      1.0  0.17106  0.84822  0.31232  1.0000
  C   C106      1.0  0.08416  0.83753  0.32921  1.0000
  C   C107      1.0  0.07284  0.81556  0.33673  1.0000
  C   C108      1.0  0.05099  0.80443  0.33271  1.0000
  C   C109      1.0  0.03967  0.81485  0.31946  1.0000
  C   C110      1.0  0.05080  0.83677  0.31340  1.0000
  C   C111      1.0  0.07265  0.84789  0.31803  1.0000
  C   C112      1.0  0.14949  0.90317  0.33450  1.0000
  C   C113      1.0  0.13990  0.91464  0.30733  1.0000
  C   C114      1.0  0.15108  0.93651  0.30560  1.0000
  C   C115      1.0  0.17210  0.94776  0.33313  1.0000
  C   C116      1.0  0.18165  0.93633  0.36109  1.0000
  C   C117      1.0  0.17060  0.91446  0.36110  1.0000
  H   H55       1.0  0.04343  0.78855  0.33773  1.0000
  H   H56       1.0  0.08035  0.80730  0.34546  1.0000
  H   H57       1.0  0.04309  0.84489  0.30623  1.0000
  H   H58       1.0  0.08002  0.86374  0.31268  1.0000
  H   H59       1.0  0.12473  0.90719  0.28671  1.0000
  H   H60       1.0  0.14355  0.94417  0.28509  1.0000
  H   H61       1.0  0.17823  0.90691  0.38153  1.0000
  H   H62       1.0  0.19697  0.94377  0.37938  1.0000
  H   H63       1.0  0.17869  0.86349  0.29308  1.0000
  H   H64       1.0  0.19754  0.84545  0.29396  1.0000
  H   H65       1.0  0.14391  0.79105  0.38267  1.0000
  H   H66       1.0  0.12499  0.80912  0.38221  1.0000
  C   C118      1.0  0.85306  0.73748  0.33242  1.0000
  N   N40       1.0  0.84306  0.71634  0.33485  1.0000
  C   C119      1.0  0.85332  0.70547  0.33673  1.0000
  N   N41       1.0  0.87443  0.71658  0.33655  1.0000
  C   C120      1.0  0.88532  0.73769  0.33451  1.0000
  N   N42       1.0  0.87422  0.74772  0.33200  1.0000
  C   C121      1.0  0.84247  0.68336  0.33733  1.0000
  C   C122      1.0  0.82129  0.67178  0.36265  1.0000
  C   C123      1.0  0.81066  0.64991  0.36374  1.0000
  C   C124      1.0  0.82064  0.63879  0.33723  1.0000
  C   C125      1.0  0.84177  0.65033  0.31144  1.0000
  C   C126      1.0  0.85252  0.67219  0.31220  1.0000
  C   C127      1.0  0.84180  0.74839  0.32917  1.0000
  C   C128      1.0  0.81983  0.73773  0.33660  1.0000
  C   C129      1.0  0.80869  0.74844  0.33251  1.0000
  C   C130      1.0  0.81911  0.77018  0.31938  1.0000
  C   C131      1.0  0.84103  0.78099  0.31342  1.0000
  C   C132      1.0  0.85216  0.77027  0.31807  1.0000
  C   C133      1.0  0.90745  0.74872  0.33460  1.0000
  C   C134      1.0  0.91892  0.76978  0.30747  1.0000
  C   C135      1.0  0.94079  0.78048  0.30573  1.0000
  C   C136      1.0  0.95204  0.77070  0.33324  1.0000
  C   C137      1.0  0.94061  0.74973  0.36127  1.0000
  C   C138      1.0  0.91875  0.73891  0.36122  1.0000
  H   H67       1.0  0.79281  0.74011  0.33750  1.0000
  H   H68       1.0  0.81157  0.72195  0.34526  1.0000
  H   H69       1.0  0.84914  0.79682  0.30630  1.0000
  H   H70       1.0  0.86801  0.77875  0.31279  1.0000
  H   H71       1.0  0.91147  0.77750  0.28676  1.0000
  H   H72       1.0  0.94845  0.79566  0.28517  1.0000
  H   H73       1.0  0.91119  0.72372  0.38160  1.0000
  H   H74       1.0  0.94806  0.74185  0.37947  1.0000
  H   H75       1.0  0.86779  0.67984  0.29298  1.0000
  H   H76       1.0  0.84977  0.64296  0.29390  1.0000
  H   H77       1.0  0.79536  0.64216  0.38266  1.0000
  H   H78       1.0  0.81341  0.67914  0.38216  1.0000
  C   C139      1.0  0.24831  0.10205  0.33244  1.0000
  N   N43       1.0  0.26945  0.11318  0.33492  1.0000
  C   C140      1.0  0.28032  0.13431  0.33681  1.0000
  N   N44       1.0  0.26922  0.14432  0.33655  1.0000
  C   C141      1.0  0.24811  0.13410  0.33446  1.0000
  N   N45       1.0  0.23807  0.11297  0.33197  1.0000
  C   C142      1.0  0.30244  0.14556  0.33745  1.0000
  C   C143      1.0  0.31400  0.13595  0.36280  1.0000
  C   C144      1.0  0.33588  0.14718  0.36384  1.0000
  C   C145      1.0  0.34700  0.16828  0.33734  1.0000
  C   C146      1.0  0.33548  0.17788  0.31157  1.0000
  C   C147      1.0  0.31361  0.16678  0.31234  1.0000
  C   C148      1.0  0.23739  0.07988  0.32921  1.0000
  C   C149      1.0  0.24804  0.06856  0.33673  1.0000
  C   C150      1.0  0.23733  0.04671  0.33269  1.0000
  C   C151      1.0  0.21558  0.03539  0.31945  1.0000
  C   C152      1.0  0.20479  0.04652  0.31340  1.0000
  C   C153      1.0  0.21551  0.06837  0.31803  1.0000
  C   C154      1.0  0.23708  0.14521  0.33448  1.0000
  C   C155      1.0  0.21603  0.13562  0.30732  1.0000
  C   C156      1.0  0.20532  0.14679  0.30559  1.0000
  C   C157      1.0  0.21510  0.16782  0.33312  1.0000
  C   C158      1.0  0.23608  0.17737  0.36106  1.0000
  C   C159      1.0  0.24690  0.16632  0.36108  1.0000
  H   H79       1.0  0.24564  0.03915  0.33771  1.0000
  H   H80       1.0  0.26382  0.07607  0.34544  1.0000
  H   H81       1.0  0.18896  0.03881  0.30623  1.0000
  H   H82       1.0  0.20704  0.07574  0.31270  1.0000
  H   H83       1.0  0.20830  0.12045  0.28671  1.0000
  H   H84       1.0  0.19014  0.13926  0.28509  1.0000
  H   H85       1.0  0.26209  0.17395  0.38150  1.0000
  H   H86       1.0  0.24396  0.19269  0.37935  1.0000
  H   H87       1.0  0.30597  0.17441  0.29309  1.0000
  H   H88       1.0  0.34286  0.19325  0.29399  1.0000
  H   H89       1.0  0.34361  0.13961  0.38272  1.0000
  H   H90       1.0  0.30663  0.12070  0.38224  1.0000
  C   C160      1.0  0.88374  0.13273  0.33243  1.0000
  N   N46       1.0  0.87261  0.14273  0.33487  1.0000
  C   C161      1.0  0.85148  0.13248  0.33675  1.0000
  N   N47       1.0  0.84147  0.11136  0.33656  1.0000
  C   C162      1.0  0.85169  0.10047  0.33452  1.0000
  N   N48       1.0  0.87282  0.11157  0.33202  1.0000
  C   C163      1.0  0.84022  0.14333  0.33735  1.0000
  C   C164      1.0  0.84982  0.16451  0.36268  1.0000
  C   C165      1.0  0.83859  0.17514  0.36378  1.0000
  C   C166      1.0  0.81748  0.16516  0.33728  1.0000
  C   C167      1.0  0.80789  0.14404  0.31147  1.0000
  C   C168      1.0  0.81900  0.13328  0.31223  1.0000
  C   C169      1.0  0.90591  0.14398  0.32918  1.0000
  C   C170      1.0  0.91722  0.16596  0.33661  1.0000
  C   C171      1.0  0.93907  0.17710  0.33251  1.0000
  C   C172      1.0  0.95040  0.16668  0.31938  1.0000
  C   C173      1.0  0.93928  0.14475  0.31343  1.0000
  C   C174      1.0  0.91743  0.13363  0.31809  1.0000
  C   C175      1.0  0.84059  0.07834  0.33460  1.0000
  C   C176      1.0  0.85018  0.06687  0.30743  1.0000
  C   C177      1.0  0.83900  0.04499  0.30570  1.0000
  C   C178      1.0  0.81797  0.03375  0.33322  1.0000
  C   C179      1.0  0.80843  0.04518  0.36125  1.0000
  C   C180      1.0  0.81948  0.06705  0.36122  1.0000
  H   H91       1.0  0.94663  0.19297  0.33749  1.0000
  H   H92       1.0  0.90971  0.17422  0.34527  1.0000
  H   H93       1.0  0.94700  0.13664  0.30631  1.0000
  H   H94       1.0  0.91006  0.11778  0.31282  1.0000
  H   H95       1.0  0.86534  0.07431  0.28676  1.0000
  H   H96       1.0  0.84652  0.03734  0.28513  1.0000
  H   H97       1.0  0.81185  0.07460  0.38162  1.0000
  H   H98       1.0  0.79310  0.03774  0.37945  1.0000
  H   H99       1.0  0.81138  0.11801  0.29300  1.0000
  H   H100      1.0  0.79252  0.13604  0.29394  1.0000
  H   H101      1.0  0.84614  0.19044  0.38272  1.0000
  H   H102      1.0  0.86507  0.17239  0.38220  1.0000
  C   C181      1.0  0.24699  0.52895  0.32125  1.0000
  N   N49       1.0  0.23688  0.50785  0.32401  1.0000
  C   C182      1.0  0.24714  0.49698  0.33091  1.0000
  N   N50       1.0  0.26831  0.50807  0.33640  1.0000
  C   C183      1.0  0.27913  0.52920  0.33547  1.0000
  N   N51       1.0  0.26802  0.53911  0.32754  1.0000
  C   C184      1.0  0.23605  0.47481  0.33392  1.0000
  C   C185      1.0  0.21408  0.46335  0.32644  1.0000
  C   C186      1.0  0.20307  0.44151  0.33109  1.0000
  C   C187      1.0  0.21363  0.43034  0.34460  1.0000
  C   C188      1.0  0.23556  0.44159  0.35011  1.0000
  C   C189      1.0  0.24655  0.46343  0.34511  1.0000
  C   C190      1.0  0.23644  0.54042  0.31430  1.0000
  C   C191      1.0  0.21604  0.53267  0.34784  1.0000
  C   C192      1.0  0.20676  0.54525  0.34935  1.0000
  C   C193      1.0  0.21730  0.56553  0.31334  1.0000
  C   C194      1.0  0.23730  0.57300  0.27651  1.0000
  C   C195      1.0  0.24676  0.56071  0.27766  1.0000
  C   C196      1.0  0.30116  0.54100  0.34277  1.0000
  C   C197      1.0  0.31087  0.56178  0.37377  1.0000
  C   C198      1.0  0.33259  0.57427  0.37561  1.0000
  C   C199      1.0  0.34545  0.56654  0.34527  1.0000
  C   C200      1.0  0.33595  0.54563  0.31662  1.0000
  C   C201      1.0  0.31410  0.53296  0.31652  1.0000
  H   H103      1.0  0.19251  0.53972  0.37874  1.0000
  H   H104      1.0  0.20827  0.51829  0.37691  1.0000
  H   H105      1.0  0.24568  0.58791  0.25285  1.0000
  H   H106      1.0  0.26152  0.56699  0.25271  1.0000
  H   H107      1.0  0.30223  0.56829  0.39402  1.0000
  H   H108      1.0  0.33886  0.58949  0.39470  1.0000
  H   H109      1.0  0.30772  0.51812  0.29240  1.0000
  H   H110      1.0  0.34487  0.53971  0.29301  1.0000
  H   H111      1.0  0.26241  0.47090  0.35023  1.0000
  H   H112      1.0  0.24377  0.43398  0.35747  1.0000
  H   H113      1.0  0.18719  0.43386  0.32649  1.0000
  H   H114      1.0  0.20570  0.47074  0.31789  1.0000
  C   C202      1.0  0.45684  0.70447  0.32144  1.0000
  N   N52       1.0  0.47794  0.71545  0.32408  1.0000
  C   C203      1.0  0.48882  0.73658  0.33098  1.0000
  N   N53       1.0  0.47773  0.74666  0.33659  1.0000
  C   C204      1.0  0.45660  0.73636  0.33578  1.0000
  N   N54       1.0  0.44668  0.71535  0.32784  1.0000
  C   C205      1.0  0.51099  0.74765  0.33392  1.0000
  C   C206      1.0  0.52244  0.73714  0.32649  1.0000
  C   C207      1.0  0.54428  0.74796  0.33115  1.0000
  C   C208      1.0  0.55546  0.76970  0.34460  1.0000
  C   C209      1.0  0.54421  0.78038  0.35003  1.0000
  C   C210      1.0  0.52237  0.76954  0.34503  1.0000
  C   C211      1.0  0.44536  0.68244  0.31443  1.0000
  C   C212      1.0  0.45311  0.66979  0.34787  1.0000
  C   C213      1.0  0.44056  0.64793  0.34904  1.0000
  C   C214      1.0  0.42029  0.63818  0.31292  1.0000
  C   C215      1.0  0.41280  0.65073  0.27643  1.0000
  C   C216      1.0  0.42508  0.67249  0.27779  1.0000
  C   C217      1.0  0.44483  0.74661  0.34322  1.0000
  C   C218      1.0  0.42411  0.73559  0.37498  1.0000
  C   C219      1.0  0.41161  0.74481  0.37685  1.0000
  C   C220      1.0  0.41928  0.76534  0.34588  1.0000
  C   C221      1.0  0.44014  0.77672  0.31656  1.0000
  C   C222      1.0  0.45282  0.76754  0.31638  1.0000
  H   H115      1.0  0.44612  0.63921  0.37813  1.0000
  H   H116      1.0  0.46752  0.67639  0.37670  1.0000
  H   H117      1.0  0.39790  0.64421  0.25273  1.0000
  H   H118      1.0  0.41878  0.68097  0.25301  1.0000
  H   H119      1.0  0.41764  0.72047  0.39568  1.0000
  H   H120      1.0  0.39643  0.73589  0.39653  1.0000
  H   H121      1.0  0.46760  0.77595  0.29163  1.0000
  H   H122      1.0  0.44600  0.79149  0.29238  1.0000
  H   H123      1.0  0.51491  0.77794  0.35009  1.0000
  H   H124      1.0  0.55183  0.79621  0.35732  1.0000
  H   H125      1.0  0.55192  0.73972  0.32662  1.0000
  H   H126      1.0  0.51504  0.72136  0.31803  1.0000
  C   C223      1.0  0.28131  0.73884  0.32103  1.0000
  N   N55       1.0  0.27033  0.74895  0.32374  1.0000
  C   C224      1.0  0.24919  0.73868  0.33068  1.0000
  N   N56       1.0  0.23912  0.71752  0.33629  1.0000
  C   C225      1.0  0.24943  0.70670  0.33543  1.0000
  N   N57       1.0  0.27044  0.71780  0.32744  1.0000
  C   C226      1.0  0.23811  0.74977  0.33368  1.0000
  C   C227      1.0  0.24862  0.77174  0.32620  1.0000
  C   C228      1.0  0.23779  0.78275  0.33089  1.0000
  C   C229      1.0  0.21605  0.77219  0.34444  1.0000
  C   C230      1.0  0.20538  0.75025  0.34994  1.0000
  C   C231      1.0  0.21623  0.73927  0.34490  1.0000
  C   C232      1.0  0.30333  0.74938  0.31405  1.0000
  C   C233      1.0  0.31598  0.76977  0.34776  1.0000
  C   C234      1.0  0.33784  0.77904  0.34929  1.0000
  C   C235      1.0  0.34758  0.76852  0.31312  1.0000
  C   C236      1.0  0.33504  0.74854  0.27609  1.0000
  C   C237      1.0  0.31329  0.73908  0.27724  1.0000
  C   C238      1.0  0.23919  0.68467  0.34294  1.0000
  C   C239      1.0  0.25023  0.67500  0.37466  1.0000
  C   C240      1.0  0.24101  0.65328  0.37670  1.0000
  C   C241      1.0  0.22047  0.64039  0.34582  1.0000
  C   C242      1.0  0.20909  0.64987  0.31643  1.0000
  C   C243      1.0  0.21825  0.67172  0.31622  1.0000
  H   H127      1.0  0.34655  0.79327  0.37881  1.0000
  H   H128      1.0  0.30937  0.77753  0.37695  1.0000
  H   H129      1.0  0.34157  0.74016  0.25232  1.0000
  H   H130      1.0  0.30481  0.72433  0.25217  1.0000
  H   H131      1.0  0.26535  0.68365  0.39527  1.0000
  H   H132      1.0  0.24994  0.64702  0.39630  1.0000
  H   H133      1.0  0.20984  0.67809  0.29146  1.0000
  H   H134      1.0  0.19431  0.64094  0.29237  1.0000
  H   H135      1.0  0.20784  0.72341  0.35002  1.0000
  H   H136      1.0  0.18956  0.74205  0.35732  1.0000
  H   H137      1.0  0.24602  0.79863  0.32630  1.0000
  H   H138      1.0  0.26439  0.78012  0.31764  1.0000
  C   C244      1.0  0.74313  0.45255  0.32134  1.0000
  N   N58       1.0  0.75325  0.47364  0.32401  1.0000
  C   C245      1.0  0.74299  0.48452  0.33093  1.0000
  N   N59       1.0  0.72182  0.47343  0.33653  1.0000
  C   C246      1.0  0.71100  0.45230  0.33569  1.0000
  N   N60       1.0  0.72210  0.44239  0.32773  1.0000
  C   C247      1.0  0.75408  0.50669  0.33390  1.0000
  C   C248      1.0  0.77605  0.51815  0.32647  1.0000
  C   C249      1.0  0.78707  0.53998  0.33114  1.0000
  C   C250      1.0  0.77651  0.55116  0.34461  1.0000
  C   C251      1.0  0.75458  0.53991  0.35003  1.0000
  C   C252      1.0  0.74358  0.51807  0.34502  1.0000
  C   C253      1.0  0.75368  0.44107  0.31431  1.0000
  C   C254      1.0  0.77407  0.44881  0.34794  1.0000
  C   C255      1.0  0.78338  0.43625  0.34911  1.0000
  C   C256      1.0  0.77287  0.41600  0.31282  1.0000
  C   C257      1.0  0.75285  0.40853  0.27614  1.0000
  C   C258      1.0  0.74337  0.42081  0.27750  1.0000
  C   C259      1.0  0.68897  0.44052  0.34315  1.0000
  C   C260      1.0  0.67928  0.41981  0.37489  1.0000
  C   C261      1.0  0.65757  0.40731  0.37679  1.0000
  C   C262      1.0  0.64470  0.41498  0.34587  1.0000
  C   C263      1.0  0.65418  0.43584  0.31656  1.0000
  C   C264      1.0  0.67603  0.44852  0.31635  1.0000
  H   H139      1.0  0.79764  0.44180  0.37835  1.0000
  H   H140      1.0  0.78186  0.46320  0.37690  1.0000
  H   H141      1.0  0.74448  0.39363  0.25232  1.0000
  H   H142      1.0  0.72860  0.41453  0.25259  1.0000
  H   H143      1.0  0.68793  0.41334  0.39556  1.0000
  H   H144      1.0  0.65130  0.39213  0.39648  1.0000
  H   H145      1.0  0.68241  0.46330  0.29160  1.0000
  H   H146      1.0  0.64526  0.44171  0.29241  1.0000
  H   H147      1.0  0.72772  0.51061  0.35008  1.0000
  H   H148      1.0  0.74637  0.54753  0.35734  1.0000
  H   H149      1.0  0.80295  0.54763  0.32661  1.0000
  H   H150      1.0  0.78443  0.51075  0.31799  1.0000
  C   C265      1.0  0.53324  0.27701  0.32118  1.0000
  N   N61       1.0  0.51215  0.26602  0.32395  1.0000
  C   C266      1.0  0.50128  0.24488  0.33087  1.0000
  N   N62       1.0  0.51237  0.23481  0.33637  1.0000
  C   C267      1.0  0.53350  0.24512  0.33542  1.0000
  N   N63       1.0  0.54340  0.26614  0.32747  1.0000
  C   C268      1.0  0.47911  0.23381  0.33389  1.0000
  C   C269      1.0  0.46764  0.24431  0.32641  1.0000
  C   C270      1.0  0.44581  0.23348  0.33107  1.0000
  C   C271      1.0  0.43464  0.21175  0.34459  1.0000
  C   C272      1.0  0.44589  0.20108  0.35011  1.0000
  C   C273      1.0  0.46773  0.21193  0.34510  1.0000
  C   C274      1.0  0.54472  0.29903  0.31422  1.0000
  C   C275      1.0  0.53698  0.31168  0.34789  1.0000
  C   C276      1.0  0.54956  0.33354  0.34940  1.0000
  C   C277      1.0  0.56983  0.34328  0.31327  1.0000
  C   C278      1.0  0.57727  0.33075  0.27629  1.0000
  C   C279      1.0  0.56498  0.30899  0.27745  1.0000
  C   C280      1.0  0.54530  0.23489  0.34274  1.0000
  C   C281      1.0  0.56607  0.24596  0.37378  1.0000
  C   C282      1.0  0.57856  0.23673  0.37567  1.0000
  C   C283      1.0  0.57083  0.21614  0.34538  1.0000
  C   C284      1.0  0.54993  0.20473  0.31665  1.0000
  C   C285      1.0  0.53725  0.21391  0.31650  1.0000
  H   H151      1.0  0.54403  0.34225  0.37889  1.0000
  H   H152      1.0  0.52260  0.30507  0.37705  1.0000
  H   H153      1.0  0.59218  0.33727  0.25255  1.0000
  H   H154      1.0  0.57126  0.30051  0.25240  1.0000
  H   H155      1.0  0.57258  0.26111  0.39401  1.0000
  H   H156      1.0  0.59378  0.24568  0.39478  1.0000
  H   H157      1.0  0.52242  0.20545  0.29234  1.0000
  H   H158      1.0  0.54401  0.18990  0.29303  1.0000
  H   H159      1.0  0.47520  0.20354  0.35021  1.0000
  H   H160      1.0  0.43828  0.18525  0.35747  1.0000
  H   H161      1.0  0.43816  0.24172  0.32647  1.0000
  H   H162      1.0  0.47504  0.26009  0.31785  1.0000
  C   C286      1.0  0.70877  0.24270  0.32155  1.0000
  N   N64       1.0  0.71975  0.23258  0.32427  1.0000
  C   C287      1.0  0.74089  0.24284  0.33115  1.0000
  N   N65       1.0  0.75097  0.26401  0.33664  1.0000
  C   C288      1.0  0.74067  0.27483  0.33574  1.0000
  N   N66       1.0  0.71965  0.26373  0.32782  1.0000
  C   C289      1.0  0.75196  0.23174  0.33412  1.0000
  C   C290      1.0  0.74144  0.20977  0.32670  1.0000
  C   C291      1.0  0.75226  0.19876  0.33134  1.0000
  C   C292      1.0  0.77400  0.20931  0.34477  1.0000
  C   C293      1.0  0.78469  0.23124  0.35020  1.0000
  C   C294      1.0  0.77384  0.24224  0.34522  1.0000
  C   C295      1.0  0.68675  0.23215  0.31455  1.0000
  C   C296      1.0  0.67409  0.21174  0.34802  1.0000
  C   C297      1.0  0.65223  0.20243  0.34918  1.0000
  C   C298      1.0  0.64248  0.21295  0.31303  1.0000
  C   C299      1.0  0.65503  0.23299  0.27652  1.0000
  C   C300      1.0  0.67679  0.24247  0.27789  1.0000
  C   C301      1.0  0.75091  0.29687  0.34299  1.0000
  C   C302      1.0  0.73986  0.30658  0.37404  1.0000
  C   C303      1.0  0.74909  0.32831  0.37577  1.0000
  C   C304      1.0  0.76968  0.34115  0.34542  1.0000
  C   C305      1.0  0.78109  0.33165  0.31677  1.0000
  C   C306      1.0  0.77189  0.30979  0.31664  1.0000
  H   H163      1.0  0.64351  0.18815  0.37829  1.0000
  H   H164      1.0  0.68070  0.20394  0.37685  1.0000
  H   H165      1.0  0.64850  0.24136  0.25280  1.0000
  H   H166      1.0  0.68527  0.25725  0.25308  1.0000
  H   H167      1.0  0.72471  0.29796  0.39434  1.0000
  H   H168      1.0  0.74016  0.33459  0.39496  1.0000
  H   H169      1.0  0.78033  0.30340  0.29252  1.0000
  H   H170      1.0  0.79591  0.34055  0.29305  1.0000
  H   H171      1.0  0.78224  0.25810  0.35028  1.0000
  H   H172      1.0  0.80051  0.23944  0.35749  1.0000
  H   H173      1.0  0.74402  0.18287  0.32679  1.0000
  H   H174      1.0  0.72566  0.20139  0.31823  1.0000
  C   C307      1.0  0.20236  0.40831  0.34986  1.0000
  C   C308      1.0  0.18034  0.36481  0.33897  1.0000
  N   N67       1.0  0.19423  0.37510  0.40521  1.0000
  C   C309      1.0  0.20533  0.39612  0.41501  1.0000
  C   C310      1.0  0.21793  0.40370  0.49228  1.0000
  O   O13       1.0  0.22642  0.39266  0.52542  1.0000
  N   N68       1.0  0.21979  0.41976  0.54177  1.0000
  H   H175      1.0  0.21204  0.42675  0.52762  1.0000
  H   H176      1.0  0.22755  0.42340  0.59732  1.0000
  C   C311      1.0  0.57748  0.78044  0.34989  1.0000
  C   C312      1.0  0.62099  0.80194  0.33895  1.0000
  N   N69       1.0  0.61069  0.80553  0.40520  1.0000
  C   C313      1.0  0.58968  0.79560  0.41506  1.0000
  C   C314      1.0  0.58209  0.80065  0.49223  1.0000
  O   O14       1.0  0.59317  0.82015  0.52557  1.0000
  N   N70       1.0  0.56601  0.78646  0.54171  1.0000
  H   H177      1.0  0.55906  0.77171  0.52770  1.0000
  H   H178      1.0  0.56243  0.79057  0.59744  1.0000
  C   C315      1.0  0.20530  0.78346  0.34974  1.0000
  C   C316      1.0  0.18381  0.80547  0.33890  1.0000
  N   N71       1.0  0.18022  0.79158  0.40514  1.0000
  C   C317      1.0  0.19014  0.78048  0.41491  1.0000
  C   C318      1.0  0.18512  0.76788  0.49217  1.0000
  O   O15       1.0  0.16560  0.75938  0.52534  1.0000
  N   N72       1.0  0.19934  0.76603  0.54163  1.0000
  H   H179      1.0  0.21408  0.77378  0.52746  1.0000
  H   H180      1.0  0.19522  0.75826  0.59718  1.0000
  C   C319      1.0  0.78779  0.57319  0.34989  1.0000
  C   C320      1.0  0.80980  0.61669  0.33895  1.0000
  N   N73       1.0  0.79591  0.60640  0.40521  1.0000
  C   C321      1.0  0.78482  0.58538  0.41507  1.0000
  C   C322      1.0  0.77219  0.57780  0.49224  1.0000
  O   O16       1.0  0.76376  0.58887  0.52558  1.0000
  N   N74       1.0  0.77030  0.56171  0.54172  1.0000
  H   H181      1.0  0.77810  0.55477  0.52770  1.0000
  H   H182      1.0  0.76261  0.55814  0.59745  1.0000
  C   C323      1.0  0.41261  0.20100  0.34985  1.0000
  C   C324      1.0  0.36910  0.17951  0.33897  1.0000
  N   N75       1.0  0.37940  0.17592  0.40521  1.0000
  C   C325      1.0  0.40042  0.18583  0.41500  1.0000
  C   C326      1.0  0.40799  0.18081  0.49228  1.0000
  O   O17       1.0  0.39696  0.16129  0.52542  1.0000
  N   N76       1.0  0.42406  0.19502  0.54177  1.0000
  H   H183      1.0  0.43105  0.20976  0.52762  1.0000
  H   H184      1.0  0.42770  0.19090  0.59732  1.0000
  C   C327      1.0  0.78475  0.19803  0.35002  1.0000
  C   C328      1.0  0.80623  0.17601  0.33903  1.0000
  N   N77       1.0  0.80984  0.18990  0.40528  1.0000
  C   C329      1.0  0.79991  0.20099  0.41517  1.0000
  C   C330      1.0  0.80496  0.21362  0.49235  1.0000
  O   O18       1.0  0.82447  0.22205  0.52566  1.0000
  N   N78       1.0  0.79077  0.21552  0.54186  1.0000
  H   H185      1.0  0.77602  0.20771  0.52785  1.0000
  H   H186      1.0  0.79489  0.22320  0.59759  1.0000
  N   N79       1.0  0.19596  0.20430  0.38310  1.0000
  C   C331      1.0  0.20709  0.19450  0.39221  1.0000
  H   H187      1.0  0.21679  0.19800  0.44571  1.0000
  N   N80       1.0  0.78147  0.97812  0.38304  1.0000
  C   C332      1.0  0.79126  0.99905  0.39217  1.0000
  H   H188      1.0  0.78778  0.00524  0.44576  1.0000
  N   N81       1.0  0.00767  0.78984  0.38316  1.0000
  C   C333      1.0  0.98674  0.77871  0.39230  1.0000
  H   H189      1.0  0.98054  0.76902  0.44581  1.0000
  N   N82       1.0  0.79410  0.77717  0.38304  1.0000
  C   C334      1.0  0.78296  0.78697  0.39218  1.0000
  H   H190      1.0  0.77331  0.78350  0.44578  1.0000
  N   N83       1.0  0.20859  0.00339  0.38310  1.0000
  C   C335      1.0  0.19879  0.98245  0.39222  1.0000
  H   H191      1.0  0.20229  0.97626  0.44573  1.0000
  N   N84       1.0  0.98240  0.19169  0.38300  1.0000
  C   C336      1.0  0.00333  0.20284  0.39210  1.0000
  H   H192      1.0  0.00952  0.21250  0.44569  1.0000
  N   N85       1.0  0.21487  0.60888  0.40927  1.0000
  C   C337      1.0  0.21268  0.58965  0.40772  1.0000
  H   H193      1.0  0.21578  0.58403  0.46434  1.0000
  N   N86       1.0  0.37695  0.59246  0.40854  1.0000
  C   C338      1.0  0.39620  0.60949  0.40703  1.0000
  H   H194      1.0  0.40172  0.61827  0.46355  1.0000
  N   N87       1.0  0.39336  0.77096  0.40917  1.0000
  C   C339      1.0  0.37631  0.77313  0.40758  1.0000
  H   H195      1.0  0.36758  0.77004  0.46418  1.0000
  N   N88       1.0  0.77527  0.37268  0.40855  1.0000
  C   C340      1.0  0.77747  0.39192  0.40699  1.0000
  H   H196      1.0  0.77421  0.39744  0.46350  1.0000
  N   N89       1.0  0.61316  0.38906  0.40924  1.0000
  C   C341      1.0  0.59393  0.37201  0.40769  1.0000
  H   H197      1.0  0.58831  0.36328  0.46430  1.0000
  N   N90       1.0  0.59676  0.21056  0.40864  1.0000
  C   C342      1.0  0.61379  0.20835  0.40713  1.0000
  H   H198      1.0  0.62257  0.21161  0.46366  1.0000
