data_image0
_chemical_formula_structural       C8H2C4H2OC2HC8H2C4H2OC2H2N4C4HCH2C4HCH2C2H2C4H3OCOHN4C4HCH2C4HCH2C2H2C4H3OCON4C15H3C4HCH3N4C15H3C4HCH3C7HCH2N4C4HCH2C5H3C2HCOC4HC2H3OC4HC2H3OC7HCH2N4C4HCH2C5H3C2HCOC4HC2H3OC4HC2H3OC8HC7HCH4N12C8HC7HCH4C8HC7HCH4C4HC2H3OC4HC2H3OC4HC2H3OC4HC2H3OC4HC2H3OC4HC2H3OC8HC7HCH4N12C8HC7HCH4C8HC7HCH4C4HC2H3OC4HC2H3OC4HC2H3OC4HC2H3OC4HC2H3OC4HC2H3O
_chemical_formula_sum              "C336 H168 O24 N48"
_cell_length_a       46.5398
_cell_length_b       46.5397
_cell_length_c       14.8269
_cell_angle_alpha    89.998
_cell_angle_beta     90.002
_cell_angle_gamma    120

_space_group_name_H-M_alt    "P 1"
_space_group_IT_number       1

loop_
  _space_group_symop_operation_xyz
  'x, y, z'

loop_
  _atom_site_type_symbol
  _atom_site_label
  _atom_site_symmetry_multiplicity
  _atom_site_fract_x
  _atom_site_fract_y
  _atom_site_fract_z
  _atom_site_occupancy
  C   C1        1.0  0.02703  0.26407  0.37381  1.0000
  C   C2        1.0  0.04486  0.29965  0.37020  1.0000
  C   C3        1.0  0.07983  0.31733  0.35628  1.0000
  C   C4        1.0  0.09589  0.29848  0.34932  1.0000
  C   C5        1.0  0.07991  0.26357  0.35738  1.0000
  C   C6        1.0  0.04485  0.24630  0.37026  1.0000
  C   C7        1.0  0.02662  0.31644  0.37051  1.0000
  C   C8        1.0  0.02652  0.21127  0.37015  1.0000
  H   H1        1.0  0.03838  0.34171  0.36515  1.0000
  H   H2        1.0  0.03822  0.19772  0.36399  1.0000
  C   C9        1.0  0.10884  0.23410  0.42173  1.0000
  C   C10       1.0  0.10129  0.24988  0.35046  1.0000
  C   C11       1.0  0.08994  0.22432  0.50002  1.0000
  C   C12       1.0  0.10002  0.24708  0.57557  1.0000
  H   H3        1.0  0.07998  0.23839  0.62496  1.0000
  H   H4        1.0  0.10577  0.27178  0.55340  1.0000
  O   O1        1.0  0.07827  0.19499  0.51940  1.0000
  C   C13       1.0  0.10090  0.35226  0.34689  1.0000
  C   C14       1.0  0.10766  0.37489  0.41851  1.0000
  H   H5        1.0  0.09269  0.36703  0.47435  1.0000
  C   C15       1.0  0.02703  0.76407  0.37381  1.0000
  C   C16       1.0  0.04486  0.79965  0.37020  1.0000
  C   C17       1.0  0.07983  0.81733  0.35628  1.0000
  C   C18       1.0  0.09589  0.79848  0.34932  1.0000
  C   C19       1.0  0.07991  0.76358  0.35738  1.0000
  C   C20       1.0  0.04485  0.74630  0.37026  1.0000
  C   C21       1.0  0.02662  0.81644  0.37051  1.0000
  C   C22       1.0  0.02652  0.71127  0.37015  1.0000
  H   H6        1.0  0.03838  0.84172  0.36515  1.0000
  H   H7        1.0  0.03822  0.69772  0.36399  1.0000
  C   C23       1.0  0.10884  0.73410  0.42173  1.0000
  C   C24       1.0  0.10129  0.74988  0.35046  1.0000
  C   C25       1.0  0.08994  0.72432  0.50002  1.0000
  C   C26       1.0  0.10003  0.74709  0.57557  1.0000
  H   H8        1.0  0.07998  0.73839  0.62496  1.0000
  H   H9        1.0  0.10577  0.77178  0.55340  1.0000
  O   O2        1.0  0.07827  0.69499  0.51940  1.0000
  C   C27       1.0  0.10090  0.85226  0.34689  1.0000
  C   C28       1.0  0.10766  0.87489  0.41851  1.0000
  H   H10       1.0  0.09269  0.86703  0.47435  1.0000
  H   H11       1.0  0.12135  0.31125  0.34502  1.0000
  N   N1        1.0  0.12376  0.26244  0.28218  1.0000
  N   N2        1.0  0.15173  0.26259  0.28064  1.0000
  N   N3        1.0  0.15188  0.39062  0.28218  1.0000
  N   N4        1.0  0.12408  0.36265  0.28056  1.0000
  C   C29       1.0  0.21470  0.24636  0.37027  1.0000
  C   C30       1.0  0.19703  0.26367  0.35648  1.0000
  C   C31       1.0  0.21589  0.29859  0.34967  1.0000
  C   C32       1.0  0.19790  0.21134  0.37053  1.0000
  H   H12       1.0  0.20313  0.31129  0.34534  1.0000
  C   C33       1.0  0.21527  0.19394  0.37006  1.0000
  H   H13       1.0  0.20170  0.16869  0.36395  1.0000
  H   H14       1.0  0.17263  0.19781  0.36504  1.0000
  C   C34       1.0  0.21578  0.41844  0.34944  1.0000
  C   C35       1.0  0.19688  0.43445  0.35738  1.0000
  C   C36       1.0  0.21466  0.46949  0.37027  1.0000
  C   C37       1.0  0.19796  0.48782  0.37019  1.0000
  H   H15       1.0  0.20309  0.39299  0.34516  1.0000
  C   C38       1.0  0.21535  0.02259  0.37068  1.0000
  H   H16       1.0  0.20183  0.03433  0.36508  1.0000
  H   H17       1.0  0.17272  0.47614  0.36395  1.0000
  C   C39       1.0  0.16210  0.24982  0.34703  1.0000
  C   C40       1.0  0.13944  0.23393  0.41860  1.0000
  H   H18       1.0  0.14729  0.22682  0.47448  1.0000
  H   H19       1.0  0.12191  0.24896  0.60842  1.0000
  C   C41       1.0  0.13847  0.40546  0.42175  1.0000
  C   C42       1.0  0.16180  0.41311  0.35043  1.0000
  C   C43       1.0  0.14753  0.42440  0.50008  1.0000
  C   C44       1.0  0.16029  0.41398  0.57482  1.0000
  H   H20       1.0  0.14036  0.39184  0.60698  1.0000
  H   H21       1.0  0.17149  0.43375  0.62501  1.0000
  H   H22       1.0  0.17940  0.40854  0.55204  1.0000
  O   O3        1.0  0.12975  0.43584  0.52013  1.0000
  C   C45       1.0  0.22807  0.14343  0.50007  1.0000
  O   O4        1.0  0.19891  0.12563  0.52088  1.0000
  H   H23       1.0  0.12135  0.81125  0.34502  1.0000
  N   N5        1.0  0.12377  0.76244  0.28218  1.0000
  N   N6        1.0  0.15172  0.76259  0.28064  1.0000
  N   N7        1.0  0.15188  0.89062  0.28218  1.0000
  N   N8        1.0  0.12408  0.86265  0.28056  1.0000
  C   C46       1.0  0.21470  0.74636  0.37027  1.0000
  C   C47       1.0  0.19703  0.76367  0.35648  1.0000
  C   C48       1.0  0.21589  0.79859  0.34967  1.0000
  C   C49       1.0  0.19790  0.71134  0.37053  1.0000
  H   H24       1.0  0.20313  0.81129  0.34534  1.0000
  C   C50       1.0  0.21527  0.69394  0.37006  1.0000
  H   H25       1.0  0.20170  0.66869  0.36395  1.0000
  H   H26       1.0  0.17263  0.69782  0.36504  1.0000
  C   C51       1.0  0.21578  0.91844  0.34944  1.0000
  C   C52       1.0  0.19688  0.93445  0.35738  1.0000
  C   C53       1.0  0.21466  0.96949  0.37027  1.0000
  C   C54       1.0  0.19796  0.98782  0.37019  1.0000
  H   H27       1.0  0.20310  0.89299  0.34516  1.0000
  C   C55       1.0  0.21535  0.52259  0.37068  1.0000
  H   H28       1.0  0.20183  0.53433  0.36508  1.0000
  H   H29       1.0  0.17272  0.97614  0.36395  1.0000
  C   C56       1.0  0.16210  0.74982  0.34703  1.0000
  C   C57       1.0  0.13945  0.73393  0.41860  1.0000
  H   H30       1.0  0.14730  0.72682  0.47448  1.0000
  H   H31       1.0  0.12191  0.74896  0.60842  1.0000
  C   C58       1.0  0.13847  0.90546  0.42175  1.0000
  C   C59       1.0  0.16180  0.91311  0.35043  1.0000
  C   C60       1.0  0.14753  0.92440  0.50008  1.0000
  C   C61       1.0  0.16029  0.91398  0.57482  1.0000
  H   H32       1.0  0.14036  0.89185  0.60698  1.0000
  H   H33       1.0  0.17149  0.93375  0.62501  1.0000
  H   H34       1.0  0.17940  0.90854  0.55204  1.0000
  O   O5        1.0  0.12975  0.93584  0.52013  1.0000
  C   C62       1.0  0.22807  0.64342  0.50007  1.0000
  O   O6        1.0  0.19891  0.62563  0.52088  1.0000
  N   N9        1.0  0.25194  0.36246  0.28258  1.0000
  N   N10       1.0  0.25176  0.39027  0.28097  1.0000
  N   N11       1.0  0.26652  0.14790  0.28278  1.0000
  N   N12       1.0  0.26669  0.12010  0.28124  1.0000
  C   C63       1.0  0.25028  0.26410  0.37384  1.0000
  C   C64       1.0  0.25080  0.31749  0.35754  1.0000
  C   C65       1.0  0.26805  0.29969  0.37036  1.0000
  C   C66       1.0  0.26807  0.24622  0.37386  1.0000
  C   C67       1.0  0.25030  0.21063  0.37029  1.0000
  C   C68       1.0  0.26757  0.19283  0.35764  1.0000
  C   C69       1.0  0.25025  0.48731  0.37380  1.0000
  C   C70       1.0  0.26800  0.46948  0.37022  1.0000
  C   C71       1.0  0.25070  0.43451  0.35634  1.0000
  C   C72       1.0  0.26813  0.02300  0.37384  1.0000
  C   C73       1.0  0.26767  0.07580  0.35644  1.0000
  C   C74       1.0  0.25038  0.04083  0.37031  1.0000
  C   C75       1.0  0.26459  0.41345  0.34729  1.0000
  C   C76       1.0  0.26462  0.35259  0.35073  1.0000
  C   C77       1.0  0.26734  0.35410  0.57599  1.0000
  H   H35       1.0  0.26546  0.37410  0.60887  1.0000
  H   H36       1.0  0.27607  0.34276  0.62531  1.0000
  H   H37       1.0  0.24264  0.33513  0.55389  1.0000
  C   C78       1.0  0.25376  0.09684  0.34739  1.0000
  C   C79       1.0  0.23789  0.10363  0.41891  1.0000
  C   C80       1.0  0.23807  0.13440  0.42204  1.0000
  C   C81       1.0  0.25375  0.15774  0.35077  1.0000
  H   H38       1.0  0.23065  0.08856  0.47456  1.0000
  C   C82       1.0  0.25102  0.15627  0.57539  1.0000
  H   H39       1.0  0.25313  0.13637  0.60812  1.0000
  H   H40       1.0  0.24234  0.16755  0.62502  1.0000
  H   H41       1.0  0.27563  0.17533  0.55294  1.0000
  N   N13       1.0  0.25194  0.86246  0.28258  1.0000
  N   N14       1.0  0.25176  0.89027  0.28097  1.0000
  N   N15       1.0  0.26652  0.64790  0.28278  1.0000
  N   N16       1.0  0.26669  0.62010  0.28124  1.0000
  C   C83       1.0  0.25028  0.76410  0.37384  1.0000
  C   C84       1.0  0.25080  0.81749  0.35754  1.0000
  C   C85       1.0  0.26806  0.79970  0.37036  1.0000
  C   C86       1.0  0.26807  0.74622  0.37386  1.0000
  C   C87       1.0  0.25030  0.71063  0.37029  1.0000
  C   C88       1.0  0.26757  0.69283  0.35764  1.0000
  C   C89       1.0  0.25025  0.98731  0.37380  1.0000
  C   C90       1.0  0.26800  0.96948  0.37022  1.0000
  C   C91       1.0  0.25070  0.93451  0.35634  1.0000
  C   C92       1.0  0.26813  0.52300  0.37384  1.0000
  C   C93       1.0  0.26768  0.57580  0.35644  1.0000
  C   C94       1.0  0.25038  0.54083  0.37031  1.0000
  C   C95       1.0  0.26459  0.91345  0.34729  1.0000
  C   C96       1.0  0.26462  0.85260  0.35073  1.0000
  C   C97       1.0  0.26734  0.85410  0.57599  1.0000
  H   H42       1.0  0.26546  0.87410  0.60887  1.0000
  H   H43       1.0  0.27607  0.84276  0.62531  1.0000
  H   H44       1.0  0.24264  0.83513  0.55389  1.0000
  C   C98       1.0  0.25376  0.59684  0.34739  1.0000
  C   C99       1.0  0.23789  0.60363  0.41891  1.0000
  C   C100      1.0  0.23807  0.63440  0.42204  1.0000
  C   C101      1.0  0.25376  0.65774  0.35077  1.0000
  H   H45       1.0  0.23066  0.58856  0.47456  1.0000
  C   C102      1.0  0.25102  0.65627  0.57539  1.0000
  H   H46       1.0  0.25313  0.63637  0.60812  1.0000
  H   H47       1.0  0.24234  0.66755  0.62502  1.0000
  H   H48       1.0  0.27563  0.67533  0.55294  1.0000
  C   C103      1.0  0.49135  0.24627  0.37389  1.0000
  C   C104      1.0  0.47353  0.26404  0.37043  1.0000
  C   C105      1.0  0.43847  0.24677  0.35775  1.0000
  C   C106      1.0  0.42246  0.21186  0.34990  1.0000
  C   C107      1.0  0.43853  0.19301  0.35666  1.0000
  C   C108      1.0  0.47352  0.21069  0.37035  1.0000
  C   C109      1.0  0.49186  0.29907  0.37037  1.0000
  H   H49       1.0  0.39700  0.19909  0.34581  1.0000
  C   C110      1.0  0.49176  0.19390  0.37061  1.0000
  H   H50       1.0  0.48018  0.31264  0.36414  1.0000
  H   H51       1.0  0.48000  0.16862  0.36523  1.0000
  N   N17       1.0  0.39459  0.24785  0.28293  1.0000
  N   N18       1.0  0.36662  0.24768  0.28144  1.0000
  N   N19       1.0  0.36650  0.11977  0.28253  1.0000
  N   N20       1.0  0.39430  0.14775  0.28096  1.0000
  C   C111      1.0  0.30308  0.31638  0.37027  1.0000
  C   C112      1.0  0.30249  0.21174  0.34997  1.0000
  C   C113      1.0  0.32134  0.24666  0.35671  1.0000
  C   C114      1.0  0.30365  0.26396  0.37041  1.0000
  H   H52       1.0  0.31526  0.19905  0.34587  1.0000
  C   C115      1.0  0.32045  0.29899  0.37085  1.0000
  H   H53       1.0  0.34573  0.31251  0.36535  1.0000
  H   H54       1.0  0.31665  0.34163  0.36416  1.0000
  C   C116      1.0  0.30303  0.48772  0.37064  1.0000
  C   C117      1.0  0.30372  0.04082  0.37035  1.0000
  C   C118      1.0  0.32151  0.07587  0.35756  1.0000
  C   C119      1.0  0.30260  0.09187  0.34969  1.0000
  C   C120      1.0  0.32042  0.02248  0.37025  1.0000
  H   H55       1.0  0.31528  0.11733  0.34547  1.0000
  H   H56       1.0  0.34566  0.03417  0.36399  1.0000
  H   H57       1.0  0.31654  0.47596  0.36508  1.0000
  C   C121      1.0  0.28032  0.40662  0.41909  1.0000
  C   C122      1.0  0.28023  0.37589  0.42212  1.0000
  H   H58       1.0  0.28757  0.42168  0.47477  1.0000
  C   C123      1.0  0.29006  0.36678  0.50035  1.0000
  O   O7        1.0  0.31940  0.38447  0.51961  1.0000
  C   C124      1.0  0.35629  0.26058  0.34766  1.0000
  C   C125      1.0  0.37896  0.27645  0.41918  1.0000
  C   C126      1.0  0.40956  0.27628  0.42227  1.0000
  C   C127      1.0  0.41718  0.26059  0.35096  1.0000
  H   H59       1.0  0.37111  0.28356  0.47504  1.0000
  C   C128      1.0  0.42849  0.28608  0.50049  1.0000
  C   C129      1.0  0.41843  0.26336  0.57613  1.0000
  H   H60       1.0  0.39656  0.26150  0.60902  1.0000
  H   H61       1.0  0.43849  0.27206  0.62546  1.0000
  H   H62       1.0  0.41266  0.23864  0.55403  1.0000
  O   O8        1.0  0.44018  0.31542  0.51977  1.0000
  C   C130      1.0  0.41745  0.15807  0.34731  1.0000
  C   C131      1.0  0.41074  0.13541  0.41880  1.0000
  C   C132      1.0  0.37994  0.10483  0.42195  1.0000
  C   C133      1.0  0.35659  0.09723  0.35067  1.0000
  H   H63       1.0  0.42572  0.14324  0.47462  1.0000
  C   C134      1.0  0.37086  0.08581  0.50013  1.0000
  C   C135      1.0  0.35810  0.09617  0.57501  1.0000
  H   H64       1.0  0.37803  0.11827  0.60728  1.0000
  H   H65       1.0  0.34691  0.07635  0.62509  1.0000
  H   H66       1.0  0.33899  0.10162  0.55237  1.0000
  O   O9        1.0  0.38865  0.07436  0.52001  1.0000
  C   C136      1.0  0.49135  0.74627  0.37389  1.0000
  C   C137      1.0  0.47353  0.76404  0.37043  1.0000
  C   C138      1.0  0.43847  0.74677  0.35775  1.0000
  C   C139      1.0  0.42246  0.71186  0.34990  1.0000
  C   C140      1.0  0.43853  0.69301  0.35666  1.0000
  C   C141      1.0  0.47352  0.71069  0.37035  1.0000
  C   C142      1.0  0.49186  0.79907  0.37037  1.0000
  H   H67       1.0  0.39700  0.69909  0.34581  1.0000
  C   C143      1.0  0.49176  0.69390  0.37061  1.0000
  H   H68       1.0  0.48018  0.81264  0.36414  1.0000
  H   H69       1.0  0.48000  0.66862  0.36523  1.0000
  N   N21       1.0  0.39459  0.74785  0.28293  1.0000
  N   N22       1.0  0.36662  0.74768  0.28144  1.0000
  N   N23       1.0  0.36650  0.61977  0.28253  1.0000
  N   N24       1.0  0.39430  0.64775  0.28096  1.0000
  C   C144      1.0  0.30308  0.81638  0.37027  1.0000
  C   C145      1.0  0.30249  0.71174  0.34997  1.0000
  C   C146      1.0  0.32134  0.74666  0.35671  1.0000
  C   C147      1.0  0.30365  0.76396  0.37041  1.0000
  H   H70       1.0  0.31526  0.69905  0.34587  1.0000
  C   C148      1.0  0.32045  0.79899  0.37085  1.0000
  H   H71       1.0  0.34573  0.81251  0.36535  1.0000
  H   H72       1.0  0.31665  0.84163  0.36416  1.0000
  C   C149      1.0  0.30303  0.98772  0.37064  1.0000
  C   C150      1.0  0.30372  0.54082  0.37035  1.0000
  C   C151      1.0  0.32151  0.57587  0.35756  1.0000
  C   C152      1.0  0.30260  0.59187  0.34969  1.0000
  C   C153      1.0  0.32042  0.52248  0.37025  1.0000
  H   H73       1.0  0.31528  0.61733  0.34547  1.0000
  H   H74       1.0  0.34566  0.53417  0.36399  1.0000
  H   H75       1.0  0.31654  0.97596  0.36508  1.0000
  C   C154      1.0  0.28032  0.90662  0.41909  1.0000
  C   C155      1.0  0.28023  0.87589  0.42212  1.0000
  H   H76       1.0  0.28757  0.92168  0.47477  1.0000
  C   C156      1.0  0.29006  0.86678  0.50035  1.0000
  O   O10       1.0  0.31940  0.88447  0.51961  1.0000
  C   C157      1.0  0.35629  0.76058  0.34766  1.0000
  C   C158      1.0  0.37896  0.77645  0.41918  1.0000
  C   C159      1.0  0.40956  0.77628  0.42227  1.0000
  C   C160      1.0  0.41718  0.76059  0.35096  1.0000
  H   H77       1.0  0.37112  0.78357  0.47504  1.0000
  C   C161      1.0  0.42849  0.78608  0.50049  1.0000
  C   C162      1.0  0.41843  0.76336  0.57613  1.0000
  H   H78       1.0  0.39656  0.76151  0.60902  1.0000
  H   H79       1.0  0.43849  0.77206  0.62546  1.0000
  H   H80       1.0  0.41266  0.73864  0.55403  1.0000
  O   O11       1.0  0.44018  0.81542  0.51977  1.0000
  C   C163      1.0  0.41745  0.65807  0.34731  1.0000
  C   C164      1.0  0.41074  0.63541  0.41880  1.0000
  C   C165      1.0  0.37994  0.60483  0.42195  1.0000
  C   C166      1.0  0.35659  0.59723  0.35067  1.0000
  H   H81       1.0  0.42572  0.64324  0.47462  1.0000
  C   C167      1.0  0.37086  0.58581  0.50013  1.0000
  C   C168      1.0  0.35810  0.59617  0.57501  1.0000
  H   H82       1.0  0.37803  0.61827  0.60728  1.0000
  H   H83       1.0  0.34691  0.57635  0.62509  1.0000
  H   H84       1.0  0.33899  0.60162  0.55237  1.0000
  O   O12       1.0  0.38866  0.57437  0.52001  1.0000
  C   C169      1.0  0.52703  0.26407  0.37381  1.0000
  C   C170      1.0  0.54486  0.29965  0.37020  1.0000
  C   C171      1.0  0.57983  0.31733  0.35628  1.0000
  C   C172      1.0  0.59589  0.29848  0.34932  1.0000
  C   C173      1.0  0.57991  0.26357  0.35738  1.0000
  C   C174      1.0  0.54485  0.24630  0.37026  1.0000
  C   C175      1.0  0.52662  0.31644  0.37051  1.0000
  C   C176      1.0  0.52652  0.21127  0.37015  1.0000
  H   H85       1.0  0.62135  0.31125  0.34502  1.0000
  C   C177      1.0  0.99135  0.24627  0.37389  1.0000
  C   C178      1.0  0.97353  0.26404  0.37043  1.0000
  C   C179      1.0  0.93847  0.24677  0.35775  1.0000
  C   C180      1.0  0.92246  0.21186  0.34990  1.0000
  C   C181      1.0  0.93853  0.19301  0.35666  1.0000
  C   C182      1.0  0.97352  0.21069  0.37035  1.0000
  C   C183      1.0  0.99186  0.29907  0.37037  1.0000
  H   H86       1.0  0.89700  0.19909  0.34581  1.0000
  C   C184      1.0  0.99176  0.19390  0.37061  1.0000
  H   H87       1.0  0.98018  0.31264  0.36414  1.0000
  H   H88       1.0  0.53838  0.34171  0.36515  1.0000
  H   H89       1.0  0.98000  0.16862  0.36523  1.0000
  H   H90       1.0  0.53822  0.19772  0.36399  1.0000
  N   N25       1.0  0.62376  0.26244  0.28218  1.0000
  N   N26       1.0  0.65173  0.26259  0.28064  1.0000
  N   N27       1.0  0.75194  0.36246  0.28258  1.0000
  N   N28       1.0  0.75176  0.39027  0.28097  1.0000
  N   N29       1.0  0.65188  0.39062  0.28218  1.0000
  N   N30       1.0  0.62408  0.36265  0.28056  1.0000
  N   N31       1.0  0.89459  0.24785  0.28293  1.0000
  N   N32       1.0  0.86662  0.24768  0.28144  1.0000
  N   N33       1.0  0.76652  0.14790  0.28278  1.0000
  N   N34       1.0  0.76669  0.12010  0.28124  1.0000
  N   N35       1.0  0.86650  0.11977  0.28253  1.0000
  N   N36       1.0  0.89430  0.14775  0.28096  1.0000
  C   C185      1.0  0.75027  0.26410  0.37384  1.0000
  C   C186      1.0  0.71470  0.24636  0.37027  1.0000
  C   C187      1.0  0.69703  0.26367  0.35648  1.0000
  C   C188      1.0  0.71589  0.29859  0.34967  1.0000
  C   C189      1.0  0.75080  0.31749  0.35754  1.0000
  C   C190      1.0  0.76805  0.29969  0.37036  1.0000
  C   C191      1.0  0.69790  0.21134  0.37053  1.0000
  C   C192      1.0  0.80308  0.31638  0.37027  1.0000
  H   H91       1.0  0.70313  0.31129  0.34534  1.0000
  C   C193      1.0  0.76807  0.24622  0.37386  1.0000
  C   C194      1.0  0.75030  0.21063  0.37029  1.0000
  C   C195      1.0  0.76757  0.19283  0.35764  1.0000
  C   C196      1.0  0.80249  0.21174  0.34997  1.0000
  C   C197      1.0  0.82134  0.24666  0.35671  1.0000
  C   C198      1.0  0.80365  0.26396  0.37041  1.0000
  C   C199      1.0  0.71527  0.19394  0.37006  1.0000
  H   H92       1.0  0.81525  0.19905  0.34587  1.0000
  C   C200      1.0  0.82045  0.29899  0.37085  1.0000
  H   H93       1.0  0.70170  0.16869  0.36395  1.0000
  H   H94       1.0  0.67263  0.19781  0.36504  1.0000
  H   H95       1.0  0.84573  0.31251  0.36535  1.0000
  H   H96       1.0  0.81665  0.34163  0.36416  1.0000
  C   C201      1.0  0.75025  0.48731  0.37380  1.0000
  C   C202      1.0  0.76800  0.46948  0.37022  1.0000
  C   C203      1.0  0.75070  0.43451  0.35634  1.0000
  C   C204      1.0  0.71578  0.41844  0.34944  1.0000
  C   C205      1.0  0.69688  0.43445  0.35738  1.0000
  C   C206      1.0  0.71466  0.46949  0.37027  1.0000
  C   C207      1.0  0.80302  0.48772  0.37064  1.0000
  C   C208      1.0  0.69796  0.48782  0.37019  1.0000
  H   H97       1.0  0.70309  0.39299  0.34516  1.0000
  C   C209      1.0  0.76813  0.02300  0.37384  1.0000
  C   C210      1.0  0.80372  0.04082  0.37035  1.0000
  C   C211      1.0  0.82151  0.07587  0.35756  1.0000
  C   C212      1.0  0.80260  0.09187  0.34969  1.0000
  C   C213      1.0  0.76768  0.07580  0.35644  1.0000
  C   C214      1.0  0.75038  0.04083  0.37031  1.0000
  C   C215      1.0  0.82042  0.02248  0.37025  1.0000
  H   H98       1.0  0.81528  0.11733  0.34547  1.0000
  C   C216      1.0  0.71535  0.02259  0.37068  1.0000
  H   H99       1.0  0.84566  0.03417  0.36399  1.0000
  H   H100      1.0  0.81654  0.47596  0.36508  1.0000
  H   H101      1.0  0.70183  0.03433  0.36508  1.0000
  H   H102      1.0  0.67272  0.47614  0.36395  1.0000
  C   C217      1.0  0.66210  0.24982  0.34703  1.0000
  C   C218      1.0  0.63945  0.23393  0.41860  1.0000
  C   C219      1.0  0.60884  0.23410  0.42173  1.0000
  C   C220      1.0  0.60129  0.24988  0.35046  1.0000
  H   H103      1.0  0.64729  0.22682  0.47448  1.0000
  C   C221      1.0  0.58994  0.22432  0.50002  1.0000
  C   C222      1.0  0.60002  0.24708  0.57557  1.0000
  H   H104      1.0  0.62191  0.24896  0.60842  1.0000
  H   H105      1.0  0.57998  0.23839  0.62496  1.0000
  H   H106      1.0  0.60577  0.27178  0.55340  1.0000
  O   O13       1.0  0.57827  0.19499  0.51940  1.0000
  C   C223      1.0  0.76459  0.41345  0.34729  1.0000
  C   C224      1.0  0.78032  0.40662  0.41909  1.0000
  C   C225      1.0  0.78023  0.37589  0.42212  1.0000
  C   C226      1.0  0.76462  0.35259  0.35073  1.0000
  H   H107      1.0  0.78757  0.42168  0.47477  1.0000
  C   C227      1.0  0.79006  0.36678  0.50035  1.0000
  C   C228      1.0  0.76734  0.35410  0.57599  1.0000
  H   H108      1.0  0.76546  0.37410  0.60887  1.0000
  H   H109      1.0  0.77607  0.34276  0.62531  1.0000
  H   H110      1.0  0.74264  0.33513  0.55389  1.0000
  O   O14       1.0  0.81940  0.38447  0.51961  1.0000
  C   C229      1.0  0.60090  0.35226  0.34689  1.0000
  C   C230      1.0  0.60766  0.37489  0.41851  1.0000
  C   C231      1.0  0.63846  0.40546  0.42175  1.0000
  C   C232      1.0  0.66180  0.41311  0.35043  1.0000
  H   H111      1.0  0.59269  0.36703  0.47435  1.0000
  C   C233      1.0  0.64753  0.42440  0.50008  1.0000
  C   C234      1.0  0.66029  0.41398  0.57482  1.0000
  H   H112      1.0  0.64036  0.39184  0.60698  1.0000
  H   H113      1.0  0.67149  0.43375  0.62501  1.0000
  H   H114      1.0  0.67940  0.40854  0.55204  1.0000
  O   O15       1.0  0.62974  0.43584  0.52013  1.0000
  C   C235      1.0  0.85629  0.26058  0.34766  1.0000
  C   C236      1.0  0.87896  0.27645  0.41918  1.0000
  C   C237      1.0  0.90955  0.27628  0.42227  1.0000
  C   C238      1.0  0.91718  0.26059  0.35096  1.0000
  H   H115      1.0  0.87111  0.28356  0.47504  1.0000
  C   C239      1.0  0.92849  0.28608  0.50049  1.0000
  C   C240      1.0  0.91843  0.26336  0.57613  1.0000
  H   H116      1.0  0.89656  0.26150  0.60902  1.0000
  H   H117      1.0  0.93849  0.27206  0.62546  1.0000
  H   H118      1.0  0.91266  0.23864  0.55403  1.0000
  O   O16       1.0  0.94018  0.31542  0.51977  1.0000
  C   C241      1.0  0.75376  0.09684  0.34739  1.0000
  C   C242      1.0  0.73789  0.10363  0.41891  1.0000
  C   C243      1.0  0.73807  0.13440  0.42204  1.0000
  C   C244      1.0  0.75375  0.15774  0.35077  1.0000
  H   H119      1.0  0.73065  0.08856  0.47456  1.0000
  C   C245      1.0  0.72807  0.14343  0.50007  1.0000
  C   C246      1.0  0.75102  0.15627  0.57539  1.0000
  H   H120      1.0  0.75313  0.13637  0.60812  1.0000
  H   H121      1.0  0.74234  0.16755  0.62502  1.0000
  H   H122      1.0  0.77563  0.17533  0.55294  1.0000
  O   O17       1.0  0.69891  0.12563  0.52088  1.0000
  C   C247      1.0  0.91745  0.15807  0.34731  1.0000
  C   C248      1.0  0.91074  0.13541  0.41880  1.0000
  C   C249      1.0  0.87994  0.10483  0.42195  1.0000
  C   C250      1.0  0.85659  0.09723  0.35067  1.0000
  H   H123      1.0  0.92572  0.14324  0.47462  1.0000
  C   C251      1.0  0.87086  0.08581  0.50013  1.0000
  C   C252      1.0  0.85810  0.09617  0.57501  1.0000
  H   H124      1.0  0.87803  0.11827  0.60728  1.0000
  H   H125      1.0  0.84691  0.07635  0.62509  1.0000
  H   H126      1.0  0.83899  0.10162  0.55237  1.0000
  O   O18       1.0  0.88866  0.07436  0.52001  1.0000
  C   C253      1.0  0.52703  0.76407  0.37381  1.0000
  C   C254      1.0  0.54486  0.79965  0.37020  1.0000
  C   C255      1.0  0.57983  0.81733  0.35628  1.0000
  C   C256      1.0  0.59589  0.79848  0.34932  1.0000
  C   C257      1.0  0.57991  0.76358  0.35738  1.0000
  C   C258      1.0  0.54485  0.74630  0.37026  1.0000
  C   C259      1.0  0.52662  0.81644  0.37051  1.0000
  C   C260      1.0  0.52652  0.71127  0.37015  1.0000
  H   H127      1.0  0.62135  0.81125  0.34502  1.0000
  C   C261      1.0  0.99135  0.74627  0.37389  1.0000
  C   C262      1.0  0.97353  0.76404  0.37043  1.0000
  C   C263      1.0  0.93847  0.74677  0.35775  1.0000
  C   C264      1.0  0.92246  0.71186  0.34990  1.0000
  C   C265      1.0  0.93853  0.69301  0.35666  1.0000
  C   C266      1.0  0.97352  0.71069  0.37035  1.0000
  C   C267      1.0  0.99186  0.79907  0.37037  1.0000
  H   H128      1.0  0.89700  0.69909  0.34581  1.0000
  C   C268      1.0  0.99176  0.69390  0.37061  1.0000
  H   H129      1.0  0.98018  0.81264  0.36414  1.0000
  H   H130      1.0  0.53838  0.84172  0.36515  1.0000
  H   H131      1.0  0.98000  0.66862  0.36523  1.0000
  H   H132      1.0  0.53822  0.69772  0.36399  1.0000
  N   N37       1.0  0.62376  0.76244  0.28218  1.0000
  N   N38       1.0  0.65172  0.76259  0.28064  1.0000
  N   N39       1.0  0.75194  0.86246  0.28258  1.0000
  N   N40       1.0  0.75176  0.89027  0.28097  1.0000
  N   N41       1.0  0.65188  0.89062  0.28218  1.0000
  N   N42       1.0  0.62408  0.86265  0.28056  1.0000
  N   N43       1.0  0.89459  0.74785  0.28293  1.0000
  N   N44       1.0  0.86662  0.74768  0.28144  1.0000
  N   N45       1.0  0.76652  0.64790  0.28278  1.0000
  N   N46       1.0  0.76669  0.62010  0.28124  1.0000
  N   N47       1.0  0.86650  0.61977  0.28253  1.0000
  N   N48       1.0  0.89429  0.64775  0.28096  1.0000
  C   C269      1.0  0.75028  0.76410  0.37384  1.0000
  C   C270      1.0  0.71470  0.74636  0.37027  1.0000
  C   C271      1.0  0.69703  0.76367  0.35648  1.0000
  C   C272      1.0  0.71588  0.79859  0.34967  1.0000
  C   C273      1.0  0.75080  0.81749  0.35754  1.0000
  C   C274      1.0  0.76805  0.79970  0.37036  1.0000
  C   C275      1.0  0.69790  0.71134  0.37053  1.0000
  C   C276      1.0  0.80308  0.81638  0.37027  1.0000
  H   H133      1.0  0.70313  0.81129  0.34534  1.0000
  C   C277      1.0  0.76808  0.74622  0.37386  1.0000
  C   C278      1.0  0.75030  0.71063  0.37029  1.0000
  C   C279      1.0  0.76757  0.69283  0.35764  1.0000
  C   C280      1.0  0.80249  0.71174  0.34997  1.0000
  C   C281      1.0  0.82134  0.74666  0.35671  1.0000
  C   C282      1.0  0.80365  0.76396  0.37041  1.0000
  C   C283      1.0  0.71527  0.69394  0.37006  1.0000
  H   H134      1.0  0.81526  0.69905  0.34587  1.0000
  C   C284      1.0  0.82045  0.79899  0.37085  1.0000
  H   H135      1.0  0.70170  0.66869  0.36395  1.0000
  H   H136      1.0  0.67263  0.69782  0.36504  1.0000
  H   H137      1.0  0.84573  0.81251  0.36535  1.0000
  H   H138      1.0  0.81665  0.84163  0.36416  1.0000
  C   C285      1.0  0.75025  0.98731  0.37380  1.0000
  C   C286      1.0  0.76800  0.96948  0.37022  1.0000
  C   C287      1.0  0.75070  0.93451  0.35634  1.0000
  C   C288      1.0  0.71578  0.91844  0.34944  1.0000
  C   C289      1.0  0.69688  0.93445  0.35738  1.0000
  C   C290      1.0  0.71466  0.96949  0.37027  1.0000
  C   C291      1.0  0.80303  0.98772  0.37064  1.0000
  C   C292      1.0  0.69796  0.98782  0.37019  1.0000
  H   H139      1.0  0.70310  0.89299  0.34516  1.0000
  C   C293      1.0  0.76813  0.52300  0.37384  1.0000
  C   C294      1.0  0.80372  0.54082  0.37035  1.0000
  C   C295      1.0  0.82151  0.57587  0.35756  1.0000
  C   C296      1.0  0.80260  0.59187  0.34969  1.0000
  C   C297      1.0  0.76767  0.57580  0.35644  1.0000
  C   C298      1.0  0.75038  0.54083  0.37031  1.0000
  C   C299      1.0  0.82042  0.52248  0.37025  1.0000
  H   H140      1.0  0.81528  0.61733  0.34547  1.0000
  C   C300      1.0  0.71535  0.52259  0.37068  1.0000
  H   H141      1.0  0.84566  0.53417  0.36399  1.0000
  H   H142      1.0  0.81654  0.97596  0.36508  1.0000
  H   H143      1.0  0.70183  0.53433  0.36508  1.0000
  H   H144      1.0  0.67272  0.97614  0.36395  1.0000
  C   C301      1.0  0.66210  0.74982  0.34703  1.0000
  C   C302      1.0  0.63944  0.73393  0.41860  1.0000
  C   C303      1.0  0.60884  0.73410  0.42173  1.0000
  C   C304      1.0  0.60129  0.74988  0.35046  1.0000
  H   H145      1.0  0.64730  0.72682  0.47448  1.0000
  C   C305      1.0  0.58994  0.72432  0.50002  1.0000
  C   C306      1.0  0.60002  0.74709  0.57557  1.0000
  H   H146      1.0  0.62191  0.74896  0.60842  1.0000
  H   H147      1.0  0.57998  0.73839  0.62496  1.0000
  H   H148      1.0  0.60577  0.77178  0.55340  1.0000
  O   O19       1.0  0.57827  0.69499  0.51940  1.0000
  C   C307      1.0  0.76459  0.91345  0.34729  1.0000
  C   C308      1.0  0.78032  0.90662  0.41909  1.0000
  C   C309      1.0  0.78023  0.87589  0.42212  1.0000
  C   C310      1.0  0.76462  0.85260  0.35073  1.0000
  H   H149      1.0  0.78757  0.92168  0.47477  1.0000
  C   C311      1.0  0.79006  0.86678  0.50035  1.0000
  C   C312      1.0  0.76734  0.85410  0.57599  1.0000
  H   H150      1.0  0.76546  0.87410  0.60887  1.0000
  H   H151      1.0  0.77608  0.84276  0.62531  1.0000
  H   H152      1.0  0.74264  0.83513  0.55389  1.0000
  O   O20       1.0  0.81940  0.88447  0.51961  1.0000
  C   C313      1.0  0.60090  0.85226  0.34689  1.0000
  C   C314      1.0  0.60766  0.87489  0.41851  1.0000
  C   C315      1.0  0.63847  0.90546  0.42175  1.0000
  C   C316      1.0  0.66180  0.91311  0.35043  1.0000
  H   H153      1.0  0.59269  0.86703  0.47435  1.0000
  C   C317      1.0  0.64753  0.92440  0.50008  1.0000
  C   C318      1.0  0.66029  0.91398  0.57482  1.0000
  H   H154      1.0  0.64036  0.89185  0.60698  1.0000
  H   H155      1.0  0.67149  0.93375  0.62501  1.0000
  H   H156      1.0  0.67940  0.90854  0.55204  1.0000
  O   O21       1.0  0.62975  0.93584  0.52013  1.0000
  C   C319      1.0  0.85629  0.76058  0.34766  1.0000
  C   C320      1.0  0.87896  0.77645  0.41918  1.0000
  C   C321      1.0  0.90956  0.77628  0.42227  1.0000
  C   C322      1.0  0.91718  0.76059  0.35096  1.0000
  H   H157      1.0  0.87112  0.78357  0.47504  1.0000
  C   C323      1.0  0.92849  0.78608  0.50049  1.0000
  C   C324      1.0  0.91843  0.76336  0.57613  1.0000
  H   H158      1.0  0.89656  0.76151  0.60902  1.0000
  H   H159      1.0  0.93849  0.77206  0.62546  1.0000
  H   H160      1.0  0.91266  0.73864  0.55403  1.0000
  O   O22       1.0  0.94018  0.81542  0.51977  1.0000
  C   C325      1.0  0.75376  0.59684  0.34739  1.0000
  C   C326      1.0  0.73789  0.60363  0.41891  1.0000
  C   C327      1.0  0.73807  0.63440  0.42204  1.0000
  C   C328      1.0  0.75375  0.65774  0.35077  1.0000
  H   H161      1.0  0.73065  0.58856  0.47456  1.0000
  C   C329      1.0  0.72807  0.64342  0.50007  1.0000
  C   C330      1.0  0.75102  0.65627  0.57539  1.0000
  H   H162      1.0  0.75313  0.63637  0.60812  1.0000
  H   H163      1.0  0.74234  0.66755  0.62502  1.0000
  H   H164      1.0  0.77563  0.67533  0.55294  1.0000
  O   O23       1.0  0.69891  0.62563  0.52088  1.0000
  C   C331      1.0  0.91745  0.65807  0.34731  1.0000
  C   C332      1.0  0.91074  0.63541  0.41880  1.0000
  C   C333      1.0  0.87994  0.60483  0.42195  1.0000
  C   C334      1.0  0.85659  0.59723  0.35067  1.0000
  H   H165      1.0  0.92572  0.64324  0.47462  1.0000
  C   C335      1.0  0.87086  0.58581  0.50013  1.0000
  C   C336      1.0  0.85810  0.59617  0.57501  1.0000
  H   H166      1.0  0.87803  0.61827  0.60728  1.0000
  H   H167      1.0  0.84691  0.57635  0.62509  1.0000
  H   H168      1.0  0.83899  0.60162  0.55237  1.0000
  O   O24       1.0  0.88866  0.57437  0.52001  1.0000
