data_image0
_chemical_formula_structural       C2HC2HC2H4C8H4C8H4C8H4C2HC2HC2H4C2HC2HC2H4C2HC2HC2H4C2HC2HC2H4C8H4C8H4C2HC2HC2H4C2HC2HC2H4C8H4C8H4C2HC2HC2H4C2HC2HC2H4C8H4C8H4C2HC2HC2H4C2HC2HC2H4C8H4C8H4C8H4C2HC2HC2H4C6H3C6H3C6H3C6H3C6H3C6H3C6H3C6H3C6H3C6H3C6H3C6H3C6H3C6H3C6H3C6H3C8H4C2HC2HC2H4C2HC2HC2H4C2HC2HC2H4C8H4C8H4C8H4C8H4C2HC2HC2H4C2HC2HC2H4C8H4C8H4C2HC2HC2H4C2HC2HC2H4C8H4C8H4C2HC2HC2H4C2HC2HC2H4C8H4C8H4C2HC2HC2H4C2HC2HC2H4C2HC2HC2H4C8H4
_chemical_formula_sum              "C432 H288"
_cell_length_a       82.7087
_cell_length_b       42.6428
_cell_length_c       14.9162
_cell_angle_alpha    90
_cell_angle_beta     90
_cell_angle_gamma    90

_space_group_name_H-M_alt    "P 1"
_space_group_IT_number       1

loop_
  _space_group_symop_operation_xyz
  'x, y, z'

loop_
  _atom_site_type_symbol
  _atom_site_label
  _atom_site_symmetry_multiplicity
  _atom_site_fract_x
  _atom_site_fract_y
  _atom_site_fract_z
  _atom_site_occupancy
  C   C1        1.0  0.50664  0.53668  0.25497  1.0000
  C   C2        1.0  0.51458  0.56610  0.25136  1.0000
  H   H1        1.0  0.51326  0.57998  0.19579  1.0000
  C   C3        1.0  0.47848  0.45240  0.27390  1.0000
  C   C4        1.0  0.48687  0.48141  0.27270  1.0000
  H   H2        1.0  0.46957  0.44835  0.22765  1.0000
  C   C5        1.0  0.48218  0.50609  0.20701  1.0000
  C   C6        1.0  0.49698  0.52570  0.17680  1.0000
  H   H3        1.0  0.47334  0.52154  0.23890  1.0000
  H   H4        1.0  0.47653  0.49588  0.14748  1.0000
  H   H5        1.0  0.49268  0.54538  0.13626  1.0000
  H   H6        1.0  0.50478  0.51121  0.13452  1.0000
  C   C7        1.0  0.98123  0.07665  0.35510  1.0000
  C   C8        1.0  0.97967  0.05730  0.27897  1.0000
  C   C9        1.0  0.98769  0.02826  0.27433  1.0000
  C   C10       1.0  0.99739  0.01701  0.34605  1.0000
  C   C11       1.0  0.00607  0.98752  0.34264  1.0000
  C   C12       1.0  0.00213  0.96331  0.28130  1.0000
  C   C13       1.0  0.01041  0.93455  0.28123  1.0000
  C   C14       1.0  0.02298  0.92834  0.34299  1.0000
  H   H7        1.0  0.99280  0.96566  0.23710  1.0000
  H   H8        1.0  0.00701  0.91790  0.23554  1.0000
  H   H9        1.0  0.97316  0.06476  0.22460  1.0000
  H   H10       1.0  0.98669  0.01604  0.21581  1.0000
  C   C15       1.0  0.43398  0.35915  0.33916  1.0000
  C   C16       1.0  0.42395  0.36928  0.26834  1.0000
  C   C17       1.0  0.40740  0.36142  0.26641  1.0000
  C   C18       1.0  0.40006  0.34354  0.33572  1.0000
  C   C19       1.0  0.38337  0.33309  0.33310  1.0000
  C   C20       1.0  0.37141  0.34691  0.27746  1.0000
  C   C21       1.0  0.35533  0.33601  0.27660  1.0000
  C   C22       1.0  0.35033  0.31074  0.33139  1.0000
  H   H11       1.0  0.37413  0.36555  0.23732  1.0000
  H   H12       1.0  0.34729  0.34657  0.23408  1.0000
  H   H13       1.0  0.42881  0.38115  0.21512  1.0000
  H   H14       1.0  0.40099  0.36790  0.21099  1.0000
  C   C23       1.0  0.57183  0.64774  0.33923  1.0000
  C   C24       1.0  0.58205  0.63713  0.26982  1.0000
  C   C25       1.0  0.59860  0.64494  0.26880  1.0000
  C   C26       1.0  0.60576  0.66321  0.33779  1.0000
  C   C27       1.0  0.62249  0.67338  0.33613  1.0000
  C   C28       1.0  0.63451  0.65914  0.28182  1.0000
  C   C29       1.0  0.65062  0.66989  0.28127  1.0000
  C   C30       1.0  0.65558  0.69539  0.33526  1.0000
  H   H15       1.0  0.63184  0.64033  0.24223  1.0000
  H   H16       1.0  0.65868  0.65908  0.23944  1.0000
  H   H17       1.0  0.57735  0.62482  0.21697  1.0000
  H   H18       1.0  0.60514  0.63801  0.21433  1.0000
  C   C31       1.0  0.09545  0.83388  0.26979  1.0000
  C   C32       1.0  0.07881  0.84157  0.26891  1.0000
  H   H19       1.0  0.07175  0.83410  0.21664  1.0000
  C   C33       1.0  0.14349  0.79714  0.28991  1.0000
  C   C34       1.0  0.12732  0.80805  0.28789  1.0000
  H   H20       1.0  0.14675  0.77922  0.24799  1.0000
  C   C35       1.0  0.11539  0.79227  0.22824  1.0000
  C   C36       1.0  0.10250  0.81570  0.19412  1.0000
  H   H21       1.0  0.10947  0.77357  0.26619  1.0000
  H   H22       1.0  0.12129  0.78163  0.17008  1.0000
  H   H23       1.0  0.09326  0.80270  0.15715  1.0000
  H   H24       1.0  0.10817  0.83221  0.14763  1.0000
  C   C37       1.0  0.91017  0.17347  0.26926  1.0000
  C   C38       1.0  0.92683  0.16586  0.26937  1.0000
  H   H25       1.0  0.93402  0.17362  0.21805  1.0000
  C   C39       1.0  0.86190  0.20934  0.28712  1.0000
  C   C40       1.0  0.87810  0.19860  0.28551  1.0000
  H   H26       1.0  0.85867  0.22745  0.24580  1.0000
  C   C41       1.0  0.89011  0.21488  0.22744  1.0000
  C   C42       1.0  0.90327  0.19196  0.19377  1.0000
  H   H27       1.0  0.89577  0.23360  0.26648  1.0000
  H   H28       1.0  0.88430  0.22556  0.16906  1.0000
  H   H29       1.0  0.91257  0.20539  0.15855  1.0000
  H   H30       1.0  0.89789  0.17560  0.14582  1.0000
  C   C43       1.0  0.52851  0.22408  0.27641  1.0000
  C   C44       1.0  0.53793  0.19638  0.27560  1.0000
  H   H31       1.0  0.54265  0.18840  0.21632  1.0000
  C   C45       1.0  0.50067  0.30855  0.27670  1.0000
  C   C46       1.0  0.51101  0.28217  0.28088  1.0000
  H   H32       1.0  0.50171  0.32388  0.22415  1.0000
  C   C47       1.0  0.52328  0.27701  0.20932  1.0000
  C   C48       1.0  0.52581  0.24157  0.19134  1.0000
  H   H33       1.0  0.53470  0.28742  0.23117  1.0000
  H   H34       1.0  0.51973  0.28832  0.14649  1.0000
  H   H35       1.0  0.53607  0.23885  0.14575  1.0000
  H   H36       1.0  0.51509  0.23196  0.15831  1.0000
  C   C49       1.0  0.47770  0.78149  0.26428  1.0000
  C   C50       1.0  0.46840  0.80935  0.26278  1.0000
  H   H37       1.0  0.46427  0.81794  0.20287  1.0000
  C   C51       1.0  0.50518  0.69654  0.26652  1.0000
  C   C52       1.0  0.49484  0.72294  0.26976  1.0000
  H   H38       1.0  0.50468  0.68178  0.21242  1.0000
  C   C53       1.0  0.48332  0.72902  0.19502  1.0000
  C   C54       1.0  0.48116  0.76468  0.17891  1.0000
  H   H39       1.0  0.47165  0.71869  0.21266  1.0000
  H   H40       1.0  0.48741  0.71817  0.13254  1.0000
  H   H41       1.0  0.47138  0.76803  0.13048  1.0000
  H   H42       1.0  0.49224  0.77434  0.14994  1.0000
  C   C55       1.0  0.96552  0.67853  0.32362  1.0000
  C   C56       1.0  0.97276  0.68893  0.24342  1.0000
  C   C57       1.0  0.98219  0.71632  0.24219  1.0000
  C   C58       1.0  0.98510  0.73382  0.32146  1.0000
  C   C59       1.0  0.99563  0.76080  0.32374  1.0000
  C   C60       1.0  0.00790  0.76606  0.25897  1.0000
  C   C61       1.0  0.01837  0.79194  0.26474  1.0000
  C   C62       1.0  0.01694  0.81373  0.33545  1.0000
  H   H43       1.0  0.00976  0.75071  0.20751  1.0000
  H   H44       1.0  0.02694  0.79495  0.21598  1.0000
  H   H45       1.0  0.97164  0.67606  0.18577  1.0000
  H   H46       1.0  0.98709  0.72286  0.18227  1.0000
  C   C63       1.0  0.04021  0.32631  0.33570  1.0000
  C   C64       1.0  0.03389  0.31498  0.25419  1.0000
  C   C65       1.0  0.02453  0.28749  0.25230  1.0000
  C   C66       1.0  0.02084  0.27077  0.33194  1.0000
  C   C67       1.0  0.01042  0.24361  0.33304  1.0000
  C   C68       1.0  0.99881  0.23764  0.26514  1.0000
  C   C69       1.0  0.98831  0.21178  0.26995  1.0000
  C   C70       1.0  0.98906  0.19069  0.34271  1.0000
  H   H47       1.0  0.99740  0.25252  0.21215  1.0000
  H   H48       1.0  0.98016  0.20835  0.21921  1.0000
  H   H49       1.0  0.03565  0.32717  0.19586  1.0000
  H   H50       1.0  0.02032  0.28021  0.19145  1.0000
  C   C71       1.0  0.31063  0.10303  0.25950  1.0000
  C   C72       1.0  0.31005  0.06986  0.25981  1.0000
  H   H51       1.0  0.31515  0.05772  0.20773  1.0000
  C   C73       1.0  0.32035  0.20149  0.27685  1.0000
  C   C74       1.0  0.31776  0.16867  0.27553  1.0000
  H   H52       1.0  0.32877  0.21086  0.23430  1.0000
  C   C75       1.0  0.32784  0.14870  0.21561  1.0000
  C   C76       1.0  0.31829  0.11971  0.18281  1.0000
  H   H53       1.0  0.33851  0.14101  0.25295  1.0000
  H   H54       1.0  0.33199  0.16178  0.15685  1.0000
  H   H55       1.0  0.32649  0.10446  0.14527  1.0000
  H   H56       1.0  0.30873  0.12734  0.13710  1.0000
  C   C77       1.0  0.69523  0.90275  0.25928  1.0000
  C   C78       1.0  0.69573  0.93592  0.25924  1.0000
  H   H57       1.0  0.69063  0.94795  0.20694  1.0000
  C   C79       1.0  0.68561  0.80433  0.27806  1.0000
  C   C80       1.0  0.68817  0.83715  0.27621  1.0000
  H   H58       1.0  0.67720  0.79484  0.23562  1.0000
  C   C81       1.0  0.67810  0.85695  0.21580  1.0000
  C   C82       1.0  0.68765  0.88590  0.18267  1.0000
  H   H59       1.0  0.66740  0.86469  0.25284  1.0000
  H   H60       1.0  0.67399  0.84374  0.15719  1.0000
  H   H61       1.0  0.67946  0.90104  0.14468  1.0000
  H   H62       1.0  0.69725  0.87820  0.13732  1.0000
  C   C83       1.0  0.20279  0.55300  0.34703  1.0000
  C   C84       1.0  0.20974  0.57038  0.27632  1.0000
  C   C85       1.0  0.20907  0.60345  0.27565  1.0000
  C   C86       1.0  0.20163  0.62068  0.34599  1.0000
  C   C87       1.0  0.19947  0.65450  0.34436  1.0000
  C   C88       1.0  0.20853  0.67493  0.28853  1.0000
  C   C89       1.0  0.20596  0.70764  0.28847  1.0000
  C   C90       1.0  0.19415  0.72169  0.34410  1.0000
  H   H63       1.0  0.21736  0.66640  0.24744  1.0000
  H   H64       1.0  0.21265  0.72113  0.24559  1.0000
  H   H65       1.0  0.21457  0.55901  0.22215  1.0000
  H   H66       1.0  0.21345  0.61461  0.22022  1.0000
  C   C91       1.0  0.80276  0.45293  0.34759  1.0000
  C   C92       1.0  0.79585  0.43572  0.27645  1.0000
  C   C93       1.0  0.79644  0.40265  0.27543  1.0000
  C   C94       1.0  0.80377  0.38527  0.34582  1.0000
  C   C95       1.0  0.80588  0.35146  0.34375  1.0000
  C   C96       1.0  0.79681  0.33118  0.28750  1.0000
  C   C97       1.0  0.79936  0.29848  0.28691  1.0000
  C   C98       1.0  0.81114  0.28429  0.34241  1.0000
  H   H67       1.0  0.78800  0.33984  0.24647  1.0000
  H   H68       1.0  0.79267  0.28508  0.24372  1.0000
  H   H69       1.0  0.79111  0.44722  0.22224  1.0000
  H   H70       1.0  0.79210  0.39161  0.21972  1.0000
  C   C99       1.0  0.27632  0.37584  0.26914  1.0000
  C   C100      1.0  0.28909  0.35366  0.26614  1.0000
  H   H71       1.0  0.29661  0.35315  0.21161  1.0000
  C   C101      1.0  0.24005  0.44789  0.28375  1.0000
  C   C102      1.0  0.25276  0.42549  0.28418  1.0000
  H   H72       1.0  0.24040  0.46599  0.23871  1.0000
  C   C103      1.0  0.26675  0.42939  0.22232  1.0000
  C   C104      1.0  0.27368  0.39735  0.19187  1.0000
  H   H73       1.0  0.27616  0.44252  0.25755  1.0000
  H   H74       1.0  0.26336  0.44276  0.16264  1.0000
  H   H75       1.0  0.28492  0.40155  0.15519  1.0000
  H   H76       1.0  0.26514  0.38618  0.14586  1.0000
  C   C105      1.0  0.72960  0.63033  0.27144  1.0000
  C   C106      1.0  0.71681  0.65246  0.26878  1.0000
  H   H77       1.0  0.70928  0.65302  0.21433  1.0000
  C   C107      1.0  0.76590  0.55834  0.28528  1.0000
  C   C108      1.0  0.75319  0.58074  0.28588  1.0000
  H   H78       1.0  0.76553  0.54025  0.24020  1.0000
  C   C109      1.0  0.73919  0.57686  0.22408  1.0000
  C   C110      1.0  0.73223  0.60891  0.19395  1.0000
  H   H79       1.0  0.72980  0.56366  0.25924  1.0000
  H   H80       1.0  0.74259  0.56357  0.16424  1.0000
  H   H81       1.0  0.72098  0.60472  0.15734  1.0000
  H   H82       1.0  0.74075  0.62015  0.14797  1.0000
  C   C111      1.0  0.21417  0.83165  0.34216  1.0000
  C   C112      1.0  0.22484  0.83255  0.26843  1.0000
  C   C113      1.0  0.23741  0.85475  0.26438  1.0000
  C   C114      1.0  0.24017  0.87662  0.33460  1.0000
  C   C115      1.0  0.25307  0.89969  0.33276  1.0000
  C   C116      1.0  0.26660  0.89730  0.27476  1.0000
  C   C117      1.0  0.27919  0.91942  0.27639  1.0000
  C   C118      1.0  0.27907  0.94505  0.33659  1.0000
  H   H83       1.0  0.26783  0.87886  0.23174  1.0000
  H   H84       1.0  0.28863  0.91641  0.23283  1.0000
  H   H85       1.0  0.22326  0.81750  0.21568  1.0000
  H   H86       1.0  0.24431  0.85490  0.20771  1.0000
  C   C119      1.0  0.79115  0.17438  0.33930  1.0000
  C   C120      1.0  0.78047  0.17343  0.26566  1.0000
  C   C121      1.0  0.76788  0.15127  0.26192  1.0000
  C   C122      1.0  0.76512  0.12950  0.33240  1.0000
  C   C123      1.0  0.75221  0.10647  0.33088  1.0000
  C   C124      1.0  0.73867  0.10884  0.27295  1.0000
  C   C125      1.0  0.72608  0.08672  0.27472  1.0000
  C   C126      1.0  0.72622  0.06112  0.33503  1.0000
  H   H87       1.0  0.73743  0.12724  0.22980  1.0000
  H   H88       1.0  0.71665  0.08967  0.23109  1.0000
  H   H89       1.0  0.78204  0.18843  0.21277  1.0000
  H   H90       1.0  0.76097  0.15107  0.20532  1.0000
  C   C127      1.0  0.11227  0.41213  0.26927  1.0000
  C   C128      1.0  0.09606  0.40155  0.26704  1.0000
  H   H91       1.0  0.09068  0.39681  0.20668  1.0000
  C   C129      1.0  0.16170  0.44151  0.27369  1.0000
  C   C130      1.0  0.14587  0.42894  0.27588  1.0000
  H   H92       1.0  0.16888  0.43759  0.21888  1.0000
  C   C131      1.0  0.13976  0.41022  0.19869  1.0000
  C   C132      1.0  0.12144  0.41580  0.18397  1.0000
  H   H93       1.0  0.14185  0.38540  0.21290  1.0000
  H   H94       1.0  0.14616  0.41607  0.13674  1.0000
  H   H95       1.0  0.11715  0.39934  0.13301  1.0000
  H   H96       1.0  0.11951  0.43960  0.15873  1.0000
  C   C133      1.0  0.89354  0.59465  0.27404  1.0000
  C   C134      1.0  0.90975  0.60524  0.27148  1.0000
  H   H97       1.0  0.91471  0.61211  0.21170  1.0000
  C   C135      1.0  0.84403  0.56576  0.28016  1.0000
  C   C136      1.0  0.85994  0.57795  0.28253  1.0000
  H   H98       1.0  0.83659  0.57140  0.22770  1.0000
  C   C137      1.0  0.86566  0.59897  0.20938  1.0000
  C   C138      1.0  0.88386  0.59382  0.18990  1.0000
  H   H99       1.0  0.86371  0.62326  0.23023  1.0000
  H   H100      1.0  0.85888  0.59511  0.14736  1.0000
  H   H101      1.0  0.88788  0.61183  0.14270  1.0000
  H   H102      1.0  0.88557  0.57093  0.15816  1.0000
  C   C139      1.0  0.41863  0.89860  0.33129  1.0000
  C   C140      1.0  0.41131  0.90632  0.24893  1.0000
  C   C141      1.0  0.39527  0.91717  0.24632  1.0000
  C   C142      1.0  0.38610  0.92128  0.32588  1.0000
  C   C143      1.0  0.36988  0.93382  0.32593  1.0000
  C   C144      1.0  0.36383  0.95297  0.25575  1.0000
  C   C145      1.0  0.34824  0.96607  0.25954  1.0000
  C   C146      1.0  0.33803  0.96029  0.33344  1.0000
  H   H103      1.0  0.37083  0.95861  0.20177  1.0000
  H   H104      1.0  0.34437  0.97976  0.20739  1.0000
  H   H105      1.0  0.41773  0.90487  0.19040  1.0000
  H   H106      1.0  0.39047  0.92218  0.18491  1.0000
  C   C147      1.0  0.58620  0.10510  0.32858  1.0000
  C   C148      1.0  0.59296  0.09436  0.24752  1.0000
  C   C149      1.0  0.60905  0.08380  0.24448  1.0000
  C   C150      1.0  0.61882  0.08275  0.32266  1.0000
  C   C151      1.0  0.63512  0.07058  0.32276  1.0000
  C   C152      1.0  0.64091  0.04958  0.25634  1.0000
  C   C153      1.0  0.65661  0.03701  0.26032  1.0000
  C   C154      1.0  0.66722  0.04507  0.33071  1.0000
  H   H107      1.0  0.63366  0.04220  0.20519  1.0000
  H   H108      1.0  0.66026  0.02197  0.21079  1.0000
  H   H109      1.0  0.58613  0.09367  0.19030  1.0000
  H   H110      1.0  0.61342  0.07670  0.18380  1.0000
  C   C155      1.0  0.03193  0.43929  0.33591  1.0000
  C   C156      1.0  0.02969  0.45614  0.25572  1.0000
  C   C157      1.0  0.01861  0.48105  0.25226  1.0000
  C   C158      1.0  0.00966  0.49027  0.32900  1.0000
  C   C159      1.0  0.99796  0.51531  0.32707  1.0000
  C   C160      1.0  0.99828  0.53939  0.26160  1.0000
  C   C161      1.0  0.98701  0.56397  0.26280  1.0000
  C   C162      1.0  0.97498  0.56554  0.32977  1.0000
  H   H111      1.0  0.00702  0.54009  0.21331  1.0000
  H   H112      1.0  0.98769  0.58081  0.21402  1.0000
  H   H113      1.0  0.03582  0.44994  0.19875  1.0000
  H   H114      1.0  0.01692  0.49165  0.19164  1.0000
  C   C163      1.0  0.49377  0.97284  0.26829  1.0000
  C   C164      1.0  0.48271  0.94761  0.26548  1.0000
  H   H115      1.0  0.48113  0.93533  0.20709  1.0000
  C   C165      1.0  0.53102  0.04184  0.28214  1.0000
  C   C166      1.0  0.51961  0.01718  0.28220  1.0000
  H   H116      1.0  0.53944  0.04298  0.23188  1.0000
  C   C167      1.0  0.52018  0.99288  0.21054  1.0000
  C   C168      1.0  0.50294  0.98160  0.18615  1.0000
  H   H117      1.0  0.52728  0.97302  0.23497  1.0000
  H   H118      1.0  0.52599  0.00177  0.14976  1.0000
  H   H119      1.0  0.50392  0.96192  0.13945  1.0000
  H   H120      1.0  0.49645  0.00053  0.15221  1.0000
  C   C169      1.0  0.47839  0.34045  0.33810  1.0000
  C   C170      1.0  0.46141  0.33730  0.34069  1.0000
  C   C171      1.0  0.45108  0.36372  0.33657  1.0000
  C   C172      1.0  0.45816  0.39396  0.33119  1.0000
  C   C173      1.0  0.47519  0.39804  0.33218  1.0000
  C   C174      1.0  0.48504  0.37088  0.33358  1.0000
  H   H121      1.0  0.45081  0.41328  0.33125  1.0000
  H   H122      1.0  0.49737  0.37328  0.33307  1.0000
  H   H123      1.0  0.45648  0.31526  0.34316  1.0000
  C   C175      1.0  0.52715  0.66443  0.33095  1.0000
  C   C176      1.0  0.54407  0.66842  0.33778  1.0000
  C   C177      1.0  0.55478  0.64256  0.33562  1.0000
  C   C178      1.0  0.54815  0.61203  0.32870  1.0000
  C   C179      1.0  0.53124  0.60728  0.32250  1.0000
  C   C180      1.0  0.52092  0.63372  0.32235  1.0000
  H   H124      1.0  0.55571  0.59300  0.32911  1.0000
  H   H125      1.0  0.50864  0.63049  0.32057  1.0000
  H   H126      1.0  0.54869  0.69069  0.34190  1.0000
  C   C181      1.0  0.02723  0.84044  0.33979  1.0000
  C   C182      1.0  0.04421  0.83729  0.33712  1.0000
  C   C183      1.0  0.05453  0.86371  0.34133  1.0000
  C   C184      1.0  0.04746  0.89394  0.34683  1.0000
  C   C185      1.0  0.03043  0.89802  0.34570  1.0000
  C   C186      1.0  0.02058  0.87087  0.34431  1.0000
  H   H127      1.0  0.05481  0.91327  0.34662  1.0000
  H   H128      1.0  0.00825  0.87326  0.34481  1.0000
  H   H129      1.0  0.04914  0.81525  0.33471  1.0000
  C   C187      1.0  0.97847  0.16441  0.34686  1.0000
  C   C188      1.0  0.96155  0.16842  0.33999  1.0000
  C   C189      1.0  0.95084  0.14256  0.34222  1.0000
  C   C190      1.0  0.95747  0.11203  0.34914  1.0000
  C   C191      1.0  0.97438  0.10727  0.35530  1.0000
  C   C192      1.0  0.98470  0.13370  0.35541  1.0000
  H   H130      1.0  0.94990  0.09300  0.34880  1.0000
  H   H131      1.0  0.99698  0.13047  0.35728  1.0000
  H   H132      1.0  0.95693  0.19068  0.33596  1.0000
  C   C193      1.0  0.33394  0.29946  0.33072  1.0000
  C   C194      1.0  0.33047  0.26689  0.33241  1.0000
  C   C195      1.0  0.31446  0.25497  0.33462  1.0000
  C   C196      1.0  0.30163  0.27703  0.33665  1.0000
  C   C197      1.0  0.30450  0.30974  0.33344  1.0000
  C   C198      1.0  0.32067  0.32047  0.33000  1.0000
  H   H133      1.0  0.28993  0.26916  0.33698  1.0000
  H   H134      1.0  0.32281  0.34413  0.33102  1.0000
  H   H135      1.0  0.33992  0.25137  0.33215  1.0000
  C   C199      1.0  0.67199  0.70661  0.33446  1.0000
  C   C200      1.0  0.67547  0.73916  0.33539  1.0000
  C   C201      1.0  0.69149  0.75105  0.33703  1.0000
  C   C202      1.0  0.70431  0.72900  0.33909  1.0000
  C   C203      1.0  0.70142  0.69628  0.33657  1.0000
  C   C204      1.0  0.68524  0.68557  0.33383  1.0000
  H   H136      1.0  0.71601  0.73684  0.33899  1.0000
  H   H137      1.0  0.68311  0.66192  0.33527  1.0000
  H   H138      1.0  0.66604  0.75471  0.33491  1.0000
  C   C205      1.0  0.17168  0.79946  0.34719  1.0000
  C   C206      1.0  0.17515  0.76689  0.34550  1.0000
  C   C207      1.0  0.19116  0.75497  0.34331  1.0000
  C   C208      1.0  0.20399  0.77702  0.34132  1.0000
  C   C209      1.0  0.20112  0.80974  0.34448  1.0000
  C   C210      1.0  0.18495  0.82046  0.34790  1.0000
  H   H139      1.0  0.21569  0.76916  0.34095  1.0000
  H   H140      1.0  0.18281  0.84413  0.34687  1.0000
  H   H141      1.0  0.16571  0.75137  0.34576  1.0000
  C   C211      1.0  0.83364  0.20661  0.34347  1.0000
  C   C212      1.0  0.83015  0.23916  0.34254  1.0000
  C   C213      1.0  0.81413  0.25104  0.34091  1.0000
  C   C214      1.0  0.80131  0.22899  0.33885  1.0000
  C   C215      1.0  0.80420  0.19628  0.34137  1.0000
  C   C216      1.0  0.82038  0.18557  0.34407  1.0000
  H   H142      1.0  0.78961  0.23684  0.33895  1.0000
  H   H143      1.0  0.82251  0.16191  0.34267  1.0000
  H   H144      1.0  0.83958  0.25471  0.34303  1.0000
  C   C217      1.0  0.04261  0.41356  0.33845  1.0000
  C   C218      1.0  0.03647  0.38274  0.33806  1.0000
  C   C219      1.0  0.04701  0.35671  0.33933  1.0000
  C   C220      1.0  0.06390  0.36175  0.34231  1.0000
  C   C221      1.0  0.07019  0.39260  0.34298  1.0000
  C   C222      1.0  0.05947  0.41835  0.34039  1.0000
  H   H145      1.0  0.07162  0.34296  0.34337  1.0000
  H   H146      1.0  0.06394  0.44079  0.34083  1.0000
  H   H147      1.0  0.02420  0.37926  0.33576  1.0000
  C   C223      1.0  0.96394  0.59108  0.33254  1.0000
  C   C224      1.0  0.96963  0.62221  0.32619  1.0000
  C   C225      1.0  0.95892  0.64796  0.32850  1.0000
  C   C226      1.0  0.94215  0.64244  0.33714  1.0000
  C   C227      1.0  0.93618  0.61146  0.34366  1.0000
  C   C228      1.0  0.94715  0.58606  0.34190  1.0000
  H   H148      1.0  0.93428  0.66100  0.33841  1.0000
  H   H149      1.0  0.94280  0.56356  0.34480  1.0000
  H   H150      1.0  0.98184  0.62626  0.32168  1.0000
  C   C229      1.0  0.46301  0.91357  0.33945  1.0000
  C   C230      1.0  0.46915  0.88275  0.33981  1.0000
  C   C231      1.0  0.45861  0.85672  0.33857  1.0000
  C   C232      1.0  0.44172  0.86176  0.33557  1.0000
  C   C233      1.0  0.43543  0.89262  0.33491  1.0000
  C   C234      1.0  0.44616  0.91837  0.33751  1.0000
  H   H151      1.0  0.43400  0.84298  0.33454  1.0000
  H   H152      1.0  0.44168  0.94081  0.33710  1.0000
  H   H153      1.0  0.48142  0.87927  0.34217  1.0000
  C   C235      1.0  0.54168  0.09109  0.34545  1.0000
  C   C236      1.0  0.53598  0.12222  0.35184  1.0000
  C   C237      1.0  0.54669  0.14797  0.34945  1.0000
  C   C238      1.0  0.56346  0.14247  0.34078  1.0000
  C   C239      1.0  0.56944  0.11148  0.33429  1.0000
  C   C240      1.0  0.55847  0.08608  0.33610  1.0000
  H   H154      1.0  0.57133  0.16102  0.33946  1.0000
  H   H155      1.0  0.56283  0.06358  0.33314  1.0000
  H   H156      1.0  0.52378  0.12626  0.35627  1.0000
  C   C241      1.0  0.18339  0.47339  0.34116  1.0000
  C   C242      1.0  0.18568  0.50614  0.34514  1.0000
  C   C243      1.0  0.20130  0.51961  0.34253  1.0000
  C   C244      1.0  0.21487  0.49931  0.33757  1.0000
  C   C245      1.0  0.21304  0.46617  0.33736  1.0000
  C   C246      1.0  0.19712  0.45384  0.33676  1.0000
  H   H157      1.0  0.22624  0.50879  0.33921  1.0000
  H   H158      1.0  0.19544  0.43003  0.33507  1.0000
  H   H159      1.0  0.17572  0.52045  0.34774  1.0000
  C   C247      1.0  0.82251  0.53225  0.34334  1.0000
  C   C248      1.0  0.82006  0.49952  0.34631  1.0000
  C   C249      1.0  0.80439  0.48628  0.34342  1.0000
  C   C250      1.0  0.79090  0.50677  0.33872  1.0000
  C   C251      1.0  0.79287  0.53988  0.33903  1.0000
  C   C252      1.0  0.80883  0.55198  0.33916  1.0000
  H   H160      1.0  0.77950  0.49745  0.33996  1.0000
  H   H161      1.0  0.81058  0.57577  0.33815  1.0000
  H   H162      1.0  0.82994  0.48501  0.34853  1.0000
  C   C253      1.0  0.32224  0.97340  0.33676  1.0000
  C   C254      1.0  0.31994  0.00615  0.33277  1.0000
  C   C255      1.0  0.30431  0.01962  0.33532  1.0000
  C   C256      1.0  0.29074  0.99930  0.34026  1.0000
  C   C257      1.0  0.29258  0.96616  0.34058  1.0000
  C   C258      1.0  0.30850  0.95384  0.34118  1.0000
  H   H163      1.0  0.27937  0.00877  0.33870  1.0000
  H   H164      1.0  0.31018  0.93003  0.34288  1.0000
  H   H165      1.0  0.32989  0.02047  0.33015  1.0000
  C   C259      1.0  0.68310  0.03225  0.33454  1.0000
  C   C260      1.0  0.68556  0.99952  0.33157  1.0000
  C   C261      1.0  0.70123  0.98628  0.33445  1.0000
  C   C262      1.0  0.71472  0.00678  0.33918  1.0000
  C   C263      1.0  0.71275  0.03988  0.33887  1.0000
  C   C264      1.0  0.69678  0.05198  0.33870  1.0000
  H   H166      1.0  0.72612  0.99745  0.33796  1.0000
  H   H167      1.0  0.69503  0.07577  0.33975  1.0000
  H   H168      1.0  0.67568  0.98501  0.32935  1.0000
  C   C265      1.0  0.52438  0.57667  0.32276  1.0000
  C   C266      1.0  0.52595  0.55732  0.39888  1.0000
  C   C267      1.0  0.51792  0.52828  0.40354  1.0000
  C   C268      1.0  0.50823  0.51702  0.33181  1.0000
  C   C269      1.0  0.49955  0.48753  0.33523  1.0000
  C   C270      1.0  0.50348  0.46333  0.39659  1.0000
  C   C271      1.0  0.49520  0.43457  0.39666  1.0000
  C   C272      1.0  0.48264  0.42835  0.33489  1.0000
  H   H169      1.0  0.51282  0.46568  0.44080  1.0000
  H   H170      1.0  0.49861  0.41792  0.44237  1.0000
  H   H171      1.0  0.53246  0.56478  0.45326  1.0000
  H   H172      1.0  0.51892  0.51606  0.46206  1.0000
  C   C273      1.0  0.99898  0.03668  0.42288  1.0000
  C   C274      1.0  0.99104  0.06609  0.42648  1.0000
  H   H173      1.0  0.99235  0.07997  0.48203  1.0000
  C   C275      1.0  0.02714  0.95239  0.40396  1.0000
  C   C276      1.0  0.01875  0.98140  0.40515  1.0000
  H   H174      1.0  0.03605  0.94835  0.45021  1.0000
  C   C277      1.0  0.02344  0.00609  0.47082  1.0000
  C   C278      1.0  0.00865  0.02570  0.50103  1.0000
  H   H175      1.0  0.03229  0.02153  0.43891  1.0000
  H   H176      1.0  0.02910  0.99588  0.53036  1.0000
  H   H177      1.0  0.01295  0.04539  0.54154  1.0000
  H   H178      1.0  0.00085  0.01121  0.54335  1.0000
  C   C279      1.0  0.41017  0.33389  0.40811  1.0000
  C   C280      1.0  0.42681  0.34159  0.40899  1.0000
  H   H179      1.0  0.43386  0.33413  0.46126  1.0000
  C   C281      1.0  0.36213  0.29715  0.38801  1.0000
  C   C282      1.0  0.37830  0.30806  0.39003  1.0000
  H   H180      1.0  0.35887  0.27923  0.42994  1.0000
  C   C283      1.0  0.39023  0.29229  0.44969  1.0000
  C   C284      1.0  0.40311  0.31572  0.48380  1.0000
  H   H181      1.0  0.39615  0.27359  0.41175  1.0000
  H   H182      1.0  0.38433  0.28166  0.50785  1.0000
  H   H183      1.0  0.41236  0.30273  0.52078  1.0000
  H   H184      1.0  0.39744  0.33224  0.53027  1.0000
  C   C285      1.0  0.59545  0.67347  0.40863  1.0000
  C   C286      1.0  0.57879  0.66586  0.40851  1.0000
  H   H185      1.0  0.57160  0.67362  0.45983  1.0000
  C   C287      1.0  0.64372  0.70934  0.39079  1.0000
  C   C288      1.0  0.62752  0.69860  0.39241  1.0000
  H   H186      1.0  0.64695  0.72745  0.43212  1.0000
  C   C289      1.0  0.61551  0.71488  0.45046  1.0000
  C   C290      1.0  0.60234  0.69196  0.48412  1.0000
  H   H187      1.0  0.60985  0.73360  0.41143  1.0000
  H   H188      1.0  0.62132  0.72556  0.50885  1.0000
  H   H189      1.0  0.59304  0.70539  0.51934  1.0000
  H   H190      1.0  0.60773  0.67560  0.53208  1.0000
  C   C291      1.0  0.07164  0.85913  0.33873  1.0000
  C   C292      1.0  0.08167  0.86927  0.40954  1.0000
  C   C293      1.0  0.09822  0.86142  0.41147  1.0000
  C   C294      1.0  0.10556  0.84353  0.34217  1.0000
  C   C295      1.0  0.12225  0.83308  0.34479  1.0000
  C   C296      1.0  0.13420  0.84690  0.40042  1.0000
  C   C297      1.0  0.15029  0.83601  0.40128  1.0000
  C   C298      1.0  0.15529  0.81073  0.34651  1.0000
  H   H191      1.0  0.13149  0.86555  0.44055  1.0000
  H   H192      1.0  0.15833  0.84657  0.44380  1.0000
  H   H193      1.0  0.07681  0.88115  0.46275  1.0000
  H   H194      1.0  0.10463  0.86790  0.46689  1.0000
  C   C299      1.0  0.93379  0.14775  0.33865  1.0000
  C   C300      1.0  0.92357  0.13713  0.40805  1.0000
  C   C301      1.0  0.90702  0.14493  0.40909  1.0000
  C   C302      1.0  0.89986  0.16321  0.34010  1.0000
  C   C303      1.0  0.88313  0.17338  0.34177  1.0000
  C   C304      1.0  0.87111  0.15914  0.39609  1.0000
  C   C305      1.0  0.85501  0.16989  0.39665  1.0000
  C   C306      1.0  0.85004  0.19539  0.34267  1.0000
  H   H195      1.0  0.87378  0.14033  0.43567  1.0000
  H   H196      1.0  0.84694  0.15908  0.43848  1.0000
  H   H197      1.0  0.92827  0.12481  0.46090  1.0000
  H   H198      1.0  0.90048  0.13800  0.46356  1.0000
  C   C307      1.0  0.54009  0.17854  0.35429  1.0000
  C   C308      1.0  0.53285  0.18894  0.43450  1.0000
  C   C309      1.0  0.52343  0.21634  0.43571  1.0000
  C   C310      1.0  0.52052  0.23383  0.35645  1.0000
  C   C311      1.0  0.50999  0.26082  0.35416  1.0000
  C   C312      1.0  0.49771  0.26607  0.41892  1.0000
  C   C313      1.0  0.48724  0.29195  0.41314  1.0000
  C   C314      1.0  0.48867  0.31374  0.34244  1.0000
  H   H199      1.0  0.49585  0.25072  0.47038  1.0000
  H   H200      1.0  0.47867  0.29497  0.46190  1.0000
  H   H201      1.0  0.53397  0.17607  0.49214  1.0000
  H   H202      1.0  0.51853  0.22288  0.49564  1.0000
  C   C315      1.0  0.46540  0.82632  0.34220  1.0000
  C   C316      1.0  0.47174  0.81500  0.42369  1.0000
  C   C317      1.0  0.48110  0.78751  0.42557  1.0000
  C   C318      1.0  0.48478  0.77078  0.34593  1.0000
  C   C319      1.0  0.49521  0.74362  0.34482  1.0000
  C   C320      1.0  0.50682  0.73766  0.41268  1.0000
  C   C321      1.0  0.51732  0.71180  0.40786  1.0000
  C   C322      1.0  0.51657  0.69071  0.33511  1.0000
  H   H203      1.0  0.50823  0.75255  0.46567  1.0000
  H   H204      1.0  0.52547  0.70838  0.45858  1.0000
  H   H205      1.0  0.46999  0.82720  0.48203  1.0000
  H   H206      1.0  0.48532  0.78024  0.48642  1.0000
  C   C323      1.0  0.97711  0.72406  0.40150  1.0000
  C   C324      1.0  0.96768  0.69637  0.40230  1.0000
  H   H207      1.0  0.96297  0.68839  0.46159  1.0000
  C   C325      1.0  0.00495  0.80853  0.40120  1.0000
  C   C326      1.0  0.99461  0.78216  0.39703  1.0000
  H   H208      1.0  0.00391  0.82386  0.45375  1.0000
  C   C327      1.0  0.98234  0.77699  0.46859  1.0000
  C   C328      1.0  0.97981  0.74155  0.48657  1.0000
  H   H209      1.0  0.97092  0.78741  0.44676  1.0000
  H   H210      1.0  0.98589  0.78830  0.53142  1.0000
  H   H211      1.0  0.96955  0.73883  0.53216  1.0000
  H   H212      1.0  0.99053  0.73194  0.51958  1.0000
  C   C329      1.0  0.02791  0.28149  0.41361  1.0000
  C   C330      1.0  0.03721  0.30934  0.41512  1.0000
  H   H213      1.0  0.04134  0.31794  0.47504  1.0000
  C   C331      1.0  0.00043  0.19653  0.41134  1.0000
  C   C332      1.0  0.01078  0.22293  0.40811  1.0000
  H   H214      1.0  0.00093  0.18177  0.46544  1.0000
  C   C333      1.0  0.02228  0.22902  0.48289  1.0000
  C   C334      1.0  0.02445  0.26468  0.49898  1.0000
  H   H215      1.0  0.03396  0.21869  0.46529  1.0000
  H   H216      1.0  0.01819  0.21818  0.54536  1.0000
  H   H217      1.0  0.03422  0.26803  0.54745  1.0000
  H   H218      1.0  0.01336  0.27434  0.52791  1.0000
  C   C335      1.0  0.30281  0.05299  0.33082  1.0000
  C   C336      1.0  0.29589  0.07038  0.40159  1.0000
  C   C337      1.0  0.29656  0.10345  0.40230  1.0000
  C   C338      1.0  0.30400  0.12068  0.33193  1.0000
  C   C339      1.0  0.30615  0.15451  0.33358  1.0000
  C   C340      1.0  0.29709  0.17493  0.38943  1.0000
  C   C341      1.0  0.29967  0.20764  0.38949  1.0000
  C   C342      1.0  0.31147  0.22169  0.33384  1.0000
  H   H219      1.0  0.28827  0.16640  0.43053  1.0000
  H   H220      1.0  0.29298  0.22113  0.43240  1.0000
  H   H221      1.0  0.29107  0.05901  0.45579  1.0000
  H   H222      1.0  0.29219  0.11460  0.45777  1.0000
  C   C343      1.0  0.70286  0.95294  0.33030  1.0000
  C   C344      1.0  0.70977  0.93573  0.40144  1.0000
  C   C345      1.0  0.70918  0.90266  0.40248  1.0000
  C   C346      1.0  0.70185  0.88528  0.33209  1.0000
  C   C347      1.0  0.69974  0.85146  0.33417  1.0000
  C   C348      1.0  0.70881  0.83119  0.39043  1.0000
  C   C349      1.0  0.70626  0.79848  0.39103  1.0000
  C   C350      1.0  0.69448  0.78430  0.33552  1.0000
  H   H223      1.0  0.71762  0.83984  0.43146  1.0000
  H   H224      1.0  0.71295  0.78509  0.43422  1.0000
  H   H225      1.0  0.71451  0.94723  0.45566  1.0000
  H   H226      1.0  0.71352  0.89162  0.45819  1.0000
  C   C351      1.0  0.19498  0.60303  0.41839  1.0000
  C   C352      1.0  0.19556  0.56986  0.41806  1.0000
  H   H227      1.0  0.19045  0.55771  0.47011  1.0000
  C   C353      1.0  0.18527  0.70149  0.40106  1.0000
  C   C354      1.0  0.18786  0.66866  0.40238  1.0000
  H   H228      1.0  0.17684  0.71085  0.44359  1.0000
  C   C355      1.0  0.17777  0.64870  0.46226  1.0000
  C   C356      1.0  0.18732  0.61970  0.49507  1.0000
  H   H229      1.0  0.16711  0.64101  0.42489  1.0000
  H   H230      1.0  0.17362  0.66177  0.52102  1.0000
  H   H231      1.0  0.17912  0.60445  0.53259  1.0000
  H   H232      1.0  0.19688  0.62733  0.54080  1.0000
  C   C357      1.0  0.81039  0.40275  0.41862  1.0000
  C   C358      1.0  0.80989  0.43592  0.41865  1.0000
  H   H233      1.0  0.81499  0.44795  0.47095  1.0000
  C   C359      1.0  0.82001  0.30433  0.39987  1.0000
  C   C360      1.0  0.81745  0.33715  0.40171  1.0000
  H   H234      1.0  0.82842  0.29484  0.44231  1.0000
  C   C361      1.0  0.82752  0.35695  0.46212  1.0000
  C   C362      1.0  0.81798  0.38590  0.49523  1.0000
  H   H235      1.0  0.83822  0.36469  0.42506  1.0000
  H   H236      1.0  0.83163  0.34375  0.52072  1.0000
  H   H237      1.0  0.82616  0.40105  0.53321  1.0000
  H   H238      1.0  0.80837  0.37821  0.54059  1.0000
  C   C363      1.0  0.29145  0.33165  0.33576  1.0000
  C   C364      1.0  0.28079  0.33257  0.40951  1.0000
  C   C365      1.0  0.26821  0.35477  0.41357  1.0000
  C   C366      1.0  0.26545  0.37662  0.34333  1.0000
  C   C367      1.0  0.25255  0.39970  0.34518  1.0000
  C   C368      1.0  0.23903  0.39731  0.40320  1.0000
  C   C369      1.0  0.22644  0.41943  0.40158  1.0000
  C   C370      1.0  0.22655  0.44506  0.34136  1.0000
  H   H239      1.0  0.23779  0.37889  0.44624  1.0000
  H   H240      1.0  0.21700  0.41643  0.44515  1.0000
  H   H241      1.0  0.28236  0.31752  0.46228  1.0000
  H   H242      1.0  0.26132  0.35492  0.47025  1.0000
  C   C371      1.0  0.71447  0.67438  0.33863  1.0000
  C   C372      1.0  0.72515  0.67343  0.41228  1.0000
  C   C373      1.0  0.73774  0.65126  0.41601  1.0000
  C   C374      1.0  0.74050  0.62951  0.34551  1.0000
  C   C375      1.0  0.75341  0.60647  0.34704  1.0000
  C   C376      1.0  0.76695  0.60884  0.40497  1.0000
  C   C377      1.0  0.77954  0.58671  0.40320  1.0000
  C   C378      1.0  0.77940  0.56111  0.34291  1.0000
  H   H243      1.0  0.76819  0.62723  0.44812  1.0000
  H   H244      1.0  0.78897  0.58966  0.44684  1.0000
  H   H245      1.0  0.72358  0.68843  0.46517  1.0000
  H   H246      1.0  0.74465  0.65106  0.47262  1.0000
  C   C379      1.0  0.22929  0.87585  0.40876  1.0000
  C   C380      1.0  0.21653  0.85367  0.41176  1.0000
  H   H247      1.0  0.20901  0.85317  0.46629  1.0000
  C   C381      1.0  0.26557  0.94789  0.39417  1.0000
  C   C382      1.0  0.25286  0.92549  0.39373  1.0000
  H   H248      1.0  0.26522  0.96600  0.43917  1.0000
  C   C383      1.0  0.23887  0.92940  0.45555  1.0000
  C   C384      1.0  0.23194  0.89736  0.48603  1.0000
  H   H249      1.0  0.22946  0.94252  0.42030  1.0000
  H   H250      1.0  0.24226  0.94278  0.51523  1.0000
  H   H251      1.0  0.22069  0.90157  0.52267  1.0000
  H   H252      1.0  0.24047  0.88620  0.53206  1.0000
  C   C385      1.0  0.77602  0.13032  0.40647  1.0000
  C   C386      1.0  0.78881  0.15245  0.40914  1.0000
  H   H253      1.0  0.79635  0.15300  0.46358  1.0000
  C   C387      1.0  0.73972  0.05833  0.39262  1.0000
  C   C388      1.0  0.75243  0.08073  0.39203  1.0000
  H   H254      1.0  0.74008  0.04025  0.43770  1.0000
  C   C389      1.0  0.76643  0.07685  0.45381  1.0000
  C   C390      1.0  0.77339  0.10890  0.48395  1.0000
  H   H255      1.0  0.77582  0.06365  0.41863  1.0000
  H   H256      1.0  0.76304  0.06355  0.51364  1.0000
  H   H257      1.0  0.78464  0.10470  0.52055  1.0000
  H   H258      1.0  0.76487  0.12014  0.52994  1.0000
  C   C391      1.0  0.08699  0.39858  0.34662  1.0000
  C   C392      1.0  0.09432  0.40629  0.42897  1.0000
  C   C393      1.0  0.11036  0.41714  0.43159  1.0000
  C   C394      1.0  0.11952  0.42126  0.35203  1.0000
  C   C395      1.0  0.13575  0.43380  0.35199  1.0000
  C   C396      1.0  0.14180  0.45293  0.42219  1.0000
  C   C397      1.0  0.15738  0.46604  0.41839  1.0000
  C   C398      1.0  0.16759  0.46028  0.34448  1.0000
  H   H259      1.0  0.13480  0.45857  0.47618  1.0000
  H   H260      1.0  0.16126  0.47972  0.47056  1.0000
  H   H261      1.0  0.08790  0.40483  0.48751  1.0000
  H   H262      1.0  0.11515  0.42214  0.49300  1.0000
  C   C399      1.0  0.91942  0.60507  0.34933  1.0000
  C   C400      1.0  0.91265  0.59438  0.43042  1.0000
  C   C401      1.0  0.89656  0.58382  0.43345  1.0000
  C   C402      1.0  0.88680  0.58276  0.35524  1.0000
  C   C403      1.0  0.87049  0.57059  0.35515  1.0000
  C   C404      1.0  0.86470  0.54961  0.42160  1.0000
  C   C405      1.0  0.84900  0.53704  0.41761  1.0000
  C   C406      1.0  0.83840  0.54507  0.34717  1.0000
  H   H263      1.0  0.87195  0.54224  0.47278  1.0000
  H   H264      1.0  0.84534  0.52201  0.46716  1.0000
  H   H265      1.0  0.91948  0.59370  0.48766  1.0000
  H   H266      1.0  0.89218  0.57676  0.49414  1.0000
  C   C407      1.0  0.39335  0.91214  0.40864  1.0000
  C   C408      1.0  0.40956  0.90156  0.41087  1.0000
  H   H267      1.0  0.41494  0.89680  0.47123  1.0000
  C   C409      1.0  0.34392  0.94152  0.40421  1.0000
  C   C410      1.0  0.35975  0.92895  0.40203  1.0000
  H   H268      1.0  0.33675  0.93759  0.45902  1.0000
  C   C411      1.0  0.36586  0.91022  0.47919  1.0000
  C   C412      1.0  0.38419  0.91580  0.49394  1.0000
  H   H269      1.0  0.36377  0.88540  0.46495  1.0000
  H   H270      1.0  0.35946  0.91606  0.54115  1.0000
  H   H271      1.0  0.38847  0.89933  0.54488  1.0000
  H   H272      1.0  0.38611  0.93959  0.51920  1.0000
  C   C413      1.0  0.61208  0.09468  0.40385  1.0000
  C   C414      1.0  0.59588  0.10528  0.40640  1.0000
  H   H273      1.0  0.59091  0.11217  0.46618  1.0000
  C   C415      1.0  0.66158  0.06577  0.39770  1.0000
  C   C416      1.0  0.64568  0.07796  0.39534  1.0000
  H   H274      1.0  0.66903  0.07143  0.45012  1.0000
  C   C417      1.0  0.63997  0.09900  0.46846  1.0000
  C   C418      1.0  0.62177  0.09386  0.48797  1.0000
  H   H275      1.0  0.64192  0.12328  0.44755  1.0000
  H   H276      1.0  0.64675  0.09515  0.53047  1.0000
  H   H277      1.0  0.61775  0.11189  0.53513  1.0000
  H   H278      1.0  0.62006  0.07098  0.51976  1.0000
  C   C419      1.0  0.01186  0.47283  0.40966  1.0000
  C   C420      1.0  0.02291  0.44760  0.41245  1.0000
  H   H279      1.0  0.02449  0.43531  0.47082  1.0000
  C   C421      1.0  0.97460  0.54183  0.39582  1.0000
  C   C422      1.0  0.98601  0.51717  0.39577  1.0000
  H   H280      1.0  0.96618  0.54296  0.44608  1.0000
  C   C423      1.0  0.98545  0.49287  0.46741  1.0000
  C   C424      1.0  0.00268  0.48158  0.49179  1.0000
  H   H281      1.0  0.97834  0.47300  0.44296  1.0000
  H   H282      1.0  0.97963  0.50175  0.52818  1.0000
  H   H283      1.0  0.00170  0.46190  0.53848  1.0000
  H   H284      1.0  0.00917  0.50051  0.52574  1.0000
  C   C425      1.0  0.47370  0.93930  0.34201  1.0000
  C   C426      1.0  0.47593  0.95614  0.42222  1.0000
  C   C427      1.0  0.48702  0.98104  0.42570  1.0000
  C   C428      1.0  0.49597  0.99028  0.34896  1.0000
  C   C429      1.0  0.50766  0.01531  0.35090  1.0000
  C   C430      1.0  0.50734  0.03939  0.41638  1.0000
  C   C431      1.0  0.51862  0.06397  0.41519  1.0000
  C   C432      1.0  0.53064  0.06555  0.34820  1.0000
  H   H285      1.0  0.49861  0.04008  0.46469  1.0000
  H   H286      1.0  0.51793  0.08081  0.46398  1.0000
  H   H287      1.0  0.46981  0.94993  0.47918  1.0000
  H   H288      1.0  0.48871  0.99164  0.48632  1.0000
