data_image0
_chemical_formula_structural       C2H2CH3C2H2CH3C2H2CH3C2H2CH2C2H2CH3C2H2CH3C4NC2NHNHC4NC2NHNHC4NC2NHNHC4NC2NHNHC4NC2NHNHC4NC2NHNHC4NC2NHNHC4NC2NHNHC4NC2NHNHC4NC2NHNHC4NC2NHNHC4NC2NHNHNC18H12NC18H12NC18H12NC18H12NC18H12NC18H12NC18H12NC18H12NC18H12NC18H12NC18H12NC18H12C4NC2NHNHC4NC2NHNHC4NC2NHNHC4NC2NHNH2C4NC2NHNHC4NC2NHNHC2H2CH3C2H2CH3C2H2CH3C2H2CH3C2H2CH3C2H2CH3C2H2CH3C2H2CH3C2H2CH3C2H2CH3C2H2CH3C2H2CH3
_chemical_formula_sum              "C378 H270 N66"
_cell_length_a       64.4719
_cell_length_b       64.472
_cell_length_c       14.7891
_cell_angle_alpha    90
_cell_angle_beta     90
_cell_angle_gamma    120

_space_group_name_H-M_alt    "P 1"
_space_group_IT_number       1

loop_
  _space_group_symop_operation_xyz
  'x, y, z'

loop_
  _atom_site_type_symbol
  _atom_site_label
  _atom_site_symmetry_multiplicity
  _atom_site_fract_x
  _atom_site_fract_y
  _atom_site_fract_z
  _atom_site_occupancy
  C   C1        1.0  0.18671  0.37765  0.28651  1.0000
  C   C2        1.0  0.19934  0.40298  0.28890  1.0000
  H   H1        1.0  0.19682  0.41182  0.23637  1.0000
  H   H2        1.0  0.17574  0.36935  0.23246  1.0000
  C   C3        1.0  0.24181  0.42626  0.03779  1.0000
  H   H3        1.0  0.22425  0.41404  0.06673  1.0000
  H   H4        1.0  0.24082  0.44033  0.00012  1.0000
  H   H5        1.0  0.25450  0.43455  0.09325  1.0000
  C   C4        1.0  0.62749  0.79995  0.28652  1.0000
  C   C5        1.0  0.60216  0.78723  0.28890  1.0000
  H   H6        1.0  0.59332  0.77588  0.23636  1.0000
  H   H7        1.0  0.63579  0.79727  0.23246  1.0000
  C   C6        1.0  0.57884  0.80640  0.03774  1.0000
  H   H8        1.0  0.59104  0.80103  0.06671  1.0000
  H   H9        1.0  0.56477  0.79135  0.00002  1.0000
  H   H10       1.0  0.57055  0.81080  0.09320  1.0000
  C   C7        1.0  0.20522  0.81844  0.28651  1.0000
  C   C8        1.0  0.21792  0.80581  0.28892  1.0000
  H   H11       1.0  0.22928  0.80833  0.23641  1.0000
  H   H12       1.0  0.20789  0.82940  0.23244  1.0000
  C   C9        1.0  0.19870  0.76341  0.03798  1.0000
  H   H13       1.0  0.20399  0.78096  0.06687  1.0000
  H   H14       1.0  0.21379  0.76444  0.00043  1.0000
  H   H15       1.0  0.19430  0.75073  0.09348  1.0000
  C   C10       1.0  0.82622  0.61971  0.28651  1.0000
  C   C11       1.0  0.81360  0.59437  0.28888  1.0000
  H   H16       1.0  0.81611  0.58554  0.23634  1.0000
  H   H17       1.0  0.83719  0.62801  0.23245  1.0000
  C   C12       1.0  0.77110  0.57103  0.03769  1.0000
  H   H18       1.0  0.78867  0.58322  0.06665  1.0000
  H   H19       1.0  0.75841  0.56274  0.09314  1.0000
  C   C13       1.0  0.38546  0.19740  0.28651  1.0000
  C   C14       1.0  0.41079  0.21012  0.28890  1.0000
  H   H20       1.0  0.41963  0.22147  0.23636  1.0000
  H   H21       1.0  0.37716  0.20008  0.23245  1.0000
  C   C15       1.0  0.43411  0.19095  0.03773  1.0000
  H   H22       1.0  0.42190  0.19631  0.06668  1.0000
  H   H23       1.0  0.44817  0.20599  0.00001  1.0000
  H   H24       1.0  0.44239  0.18655  0.09320  1.0000
  C   C16       1.0  0.80773  0.17893  0.28650  1.0000
  C   C17       1.0  0.79501  0.19154  0.28894  1.0000
  H   H25       1.0  0.78365  0.18903  0.23642  1.0000
  H   H26       1.0  0.80504  0.16795  0.23246  1.0000
  C   C18       1.0  0.81424  0.23396  0.03797  1.0000
  H   H27       1.0  0.80895  0.21641  0.06687  1.0000
  H   H28       1.0  0.79915  0.23293  0.00042  1.0000
  H   H29       1.0  0.81864  0.24664  0.09347  1.0000
  C   C19       1.0  0.21518  0.18287  0.33003  1.0000
  C   C20       1.0  0.21543  0.19682  0.25461  1.0000
  C   C21       1.0  0.20266  0.20974  0.25509  1.0000
  C   C22       1.0  0.18858  0.20902  0.33030  1.0000
  N   N1        1.0  0.20490  0.22341  0.18153  1.0000
  C   C23       1.0  0.21786  0.22501  0.10717  1.0000
  C   C24       1.0  0.22962  0.21164  0.10417  1.0000
  N   N2        1.0  0.22787  0.19839  0.17816  1.0000
  H   H30       1.0  0.21885  0.23571  0.05448  1.0000
  N   N3        1.0  0.24399  0.21322  0.02943  1.0000
  H   H31       1.0  0.25623  0.20830  0.04864  1.0000
  C   C25       1.0  0.82227  0.02319  0.33003  1.0000
  C   C26       1.0  0.80832  0.00949  0.25463  1.0000
  C   C27       1.0  0.79540  0.98381  0.25509  1.0000
  C   C28       1.0  0.79612  0.97045  0.33030  1.0000
  N   N4        1.0  0.78173  0.97237  0.18154  1.0000
  C   C29       1.0  0.78013  0.98373  0.10717  1.0000
  C   C30       1.0  0.79349  0.00887  0.10419  1.0000
  N   N5        1.0  0.80675  0.02037  0.17817  1.0000
  H   H32       1.0  0.76943  0.97402  0.05448  1.0000
  N   N6        1.0  0.79193  0.02166  0.02942  1.0000
  H   H33       1.0  0.79684  0.03882  0.04864  1.0000
  C   C31       1.0  0.98197  0.78998  0.33006  1.0000
  C   C32       1.0  0.99567  0.78973  0.25464  1.0000
  C   C33       1.0  0.02135  0.80249  0.25509  1.0000
  C   C34       1.0  0.03471  0.81657  0.33030  1.0000
  N   N7        1.0  0.03278  0.80026  0.18153  1.0000
  C   C35       1.0  0.02142  0.78730  0.10717  1.0000
  C   C36       1.0  0.99628  0.77553  0.10418  1.0000
  N   N8        1.0  0.98479  0.77729  0.17819  1.0000
  H   H34       1.0  0.03113  0.78631  0.05448  1.0000
  N   N9        1.0  0.98348  0.76116  0.02946  1.0000
  H   H35       1.0  0.96630  0.74895  0.04866  1.0000
  C   C37       1.0  0.79777  0.81449  0.33005  1.0000
  C   C38       1.0  0.79752  0.80054  0.25464  1.0000
  C   C39       1.0  0.81028  0.78762  0.25511  1.0000
  C   C40       1.0  0.82437  0.78834  0.33033  1.0000
  N   N10       1.0  0.80805  0.77395  0.18155  1.0000
  C   C41       1.0  0.79509  0.77235  0.10719  1.0000
  C   C42       1.0  0.78333  0.78572  0.10419  1.0000
  N   N11       1.0  0.78508  0.79898  0.17819  1.0000
  H   H36       1.0  0.79410  0.76165  0.05451  1.0000
  N   N12       1.0  0.76896  0.78414  0.02945  1.0000
  H   H37       1.0  0.75672  0.78907  0.04866  1.0000
  C   C43       1.0  0.19068  0.97417  0.33004  1.0000
  C   C44       1.0  0.20463  0.98787  0.25462  1.0000
  C   C45       1.0  0.21754  0.01355  0.25507  1.0000
  C   C46       1.0  0.21682  0.02692  0.33029  1.0000
  N   N13       1.0  0.23121  0.02499  0.18151  1.0000
  C   C47       1.0  0.23281  0.01363  0.10715  1.0000
  C   C48       1.0  0.21944  0.98849  0.10416  1.0000
  N   N14       1.0  0.20619  0.97699  0.17817  1.0000
  H   H38       1.0  0.24351  0.02334  0.05447  1.0000
  N   N15       1.0  0.22102  0.97569  0.02944  1.0000
  H   H39       1.0  0.21606  0.95851  0.04866  1.0000
  C   C49       1.0  0.03098  0.20738  0.33005  1.0000
  C   C50       1.0  0.01728  0.20763  0.25463  1.0000
  C   C51       1.0  0.99160  0.19487  0.25509  1.0000
  C   C52       1.0  0.97823  0.18079  0.33030  1.0000
  N   N16       1.0  0.98016  0.19710  0.18153  1.0000
  C   C53       1.0  0.99153  0.21007  0.10717  1.0000
  C   C54       1.0  0.01666  0.22183  0.10418  1.0000
  N   N17       1.0  0.02816  0.22007  0.17819  1.0000
  H   H40       1.0  0.98182  0.21106  0.05448  1.0000
  N   N18       1.0  0.02946  0.23620  0.02946  1.0000
  H   H41       1.0  0.04664  0.24841  0.04866  1.0000
  C   C55       1.0  0.24493  0.64035  0.35442  1.0000
  C   C56       1.0  0.23656  0.62588  0.27474  1.0000
  C   C57       1.0  0.23518  0.60305  0.26856  1.0000
  C   C58       1.0  0.24248  0.59372  0.34095  1.0000
  N   N19       1.0  0.22613  0.58999  0.19161  1.0000
  C   C59       1.0  0.21872  0.59752  0.11954  1.0000
  C   C60       1.0  0.22070  0.62023  0.12281  1.0000
  N   N20       1.0  0.22945  0.63303  0.20023  1.0000
  H   H42       1.0  0.21176  0.58666  0.06435  1.0000
  N   N21       1.0  0.21212  0.62862  0.05177  1.0000
  H   H43       1.0  0.21113  0.64328  0.07299  1.0000
  C   C61       1.0  0.36477  0.59547  0.35442  1.0000
  C   C62       1.0  0.37925  0.60157  0.27475  1.0000
  C   C63       1.0  0.40208  0.62302  0.26858  1.0000
  C   C64       1.0  0.41140  0.63963  0.34100  1.0000
  N   N22       1.0  0.41514  0.62702  0.19164  1.0000
  C   C65       1.0  0.40761  0.61210  0.11956  1.0000
  C   C66       1.0  0.38489  0.59137  0.12279  1.0000
  N   N23       1.0  0.37210  0.58731  0.20023  1.0000
  H   H44       1.0  0.41847  0.61599  0.06438  1.0000
  N   N24       1.0  0.37652  0.57438  0.05179  1.0000
  H   H45       1.0  0.36186  0.55874  0.07302  1.0000
  C   C67       1.0  0.40968  0.76021  0.35434  1.0000
  C   C68       1.0  0.40358  0.76858  0.27466  1.0000
  C   C69       1.0  0.38213  0.76996  0.26848  1.0000
  C   C70       1.0  0.36551  0.76266  0.34087  1.0000
  N   N25       1.0  0.37813  0.77902  0.19153  1.0000
  C   C71       1.0  0.39306  0.78643  0.11947  1.0000
  C   C72       1.0  0.41379  0.78444  0.12272  1.0000
  N   N26       1.0  0.41784  0.77570  0.20015  1.0000
  H   H46       1.0  0.38917  0.79339  0.06429  1.0000
  N   N27       1.0  0.43077  0.79305  0.05171  1.0000
  H   H47       1.0  0.44642  0.79405  0.07295  1.0000
  C   C73       1.0  0.76800  0.35700  0.35444  1.0000
  C   C74       1.0  0.77636  0.37147  0.27475  1.0000
  C   C75       1.0  0.77774  0.39430  0.26856  1.0000
  C   C76       1.0  0.77044  0.40362  0.34093  1.0000
  N   N28       1.0  0.78680  0.40735  0.19160  1.0000
  C   C77       1.0  0.79421  0.39983  0.11954  1.0000
  C   C78       1.0  0.79222  0.37711  0.12281  1.0000
  N   N29       1.0  0.78348  0.36431  0.20024  1.0000
  H   H48       1.0  0.80116  0.41067  0.06434  1.0000
  N   N30       1.0  0.80080  0.36872  0.05177  1.0000
  H   H49       1.0  0.80178  0.35405  0.07299  1.0000
  C   C79       1.0  0.64813  0.40188  0.35437  1.0000
  C   C80       1.0  0.63366  0.39578  0.27470  1.0000
  C   C81       1.0  0.61082  0.37432  0.26854  1.0000
  C   C82       1.0  0.60151  0.35770  0.34093  1.0000
  N   N31       1.0  0.59777  0.37032  0.19160  1.0000
  C   C83       1.0  0.60528  0.38525  0.11953  1.0000
  C   C84       1.0  0.62800  0.40598  0.12275  1.0000
  N   N32       1.0  0.64080  0.41003  0.20018  1.0000
  H   H50       1.0  0.59443  0.38135  0.06435  1.0000
  N   N33       1.0  0.63638  0.42296  0.05173  1.0000
  H   H51       1.0  0.65103  0.43860  0.07297  1.0000
  C   C85       1.0  0.60323  0.23708  0.35440  1.0000
  C   C86       1.0  0.60933  0.22871  0.27471  1.0000
  C   C87       1.0  0.63079  0.22734  0.26850  1.0000
  C   C88       1.0  0.64742  0.23465  0.34087  1.0000
  N   N34       1.0  0.63479  0.21829  0.19155  1.0000
  C   C89       1.0  0.61985  0.21088  0.11949  1.0000
  C   C90       1.0  0.59912  0.21285  0.12277  1.0000
  N   N35       1.0  0.59507  0.22159  0.20021  1.0000
  H   H52       1.0  0.62374  0.20391  0.06431  1.0000
  N   N36       1.0  0.58214  0.20424  0.05176  1.0000
  H   H53       1.0  0.56649  0.20325  0.07300  1.0000
  N   N37       1.0  0.13566  0.25995  0.34300  1.0000
  C   C91       1.0  0.10970  0.24703  0.34081  1.0000
  C   C92       1.0  0.14896  0.28574  0.34709  1.0000
  C   C93       1.0  0.14897  0.24746  0.33885  1.0000
  C   C94       1.0  0.14792  0.23376  0.26259  1.0000
  C   C95       1.0  0.16065  0.22114  0.26003  1.0000
  C   C96       1.0  0.17525  0.22173  0.33309  1.0000
  C   C97       1.0  0.17598  0.23536  0.40968  1.0000
  C   C98       1.0  0.16316  0.24788  0.41253  1.0000
  C   C99       1.0  0.09665  0.25588  0.29343  1.0000
  C   C100      1.0  0.07132  0.24351  0.29255  1.0000
  C   C101      1.0  0.05723  0.22073  0.33404  1.0000
  C   C102      1.0  0.07054  0.21200  0.38133  1.0000
  C   C103      1.0  0.09588  0.22493  0.38620  1.0000
  C   C104      1.0  0.16264  0.29962  0.27265  1.0000
  C   C105      1.0  0.17526  0.32496  0.27566  1.0000
  C   C106      1.0  0.17495  0.33769  0.35347  1.0000
  C   C107      1.0  0.16094  0.32360  0.42744  1.0000
  C   C108      1.0  0.14825  0.29827  0.42438  1.0000
  H   H54       1.0  0.06330  0.25186  0.26194  1.0000
  H   H55       1.0  0.10564  0.27198  0.26078  1.0000
  H   H56       1.0  0.10433  0.21765  0.42157  1.0000
  H   H57       1.0  0.06187  0.19566  0.41235  1.0000
  H   H58       1.0  0.13758  0.23272  0.20844  1.0000
  H   H59       1.0  0.15878  0.21104  0.20402  1.0000
  H   H60       1.0  0.16341  0.29121  0.21519  1.0000
  H   H61       1.0  0.18516  0.33414  0.22043  1.0000
  H   H62       1.0  0.15956  0.33177  0.48457  1.0000
  H   H63       1.0  0.13832  0.28887  0.47916  1.0000
  H   H64       1.0  0.16425  0.25745  0.46925  1.0000
  H   H65       1.0  0.18628  0.23662  0.46433  1.0000
  N   N38       1.0  0.74520  0.86660  0.34300  1.0000
  C   C109      1.0  0.75812  0.85355  0.34081  1.0000
  C   C110      1.0  0.71940  0.85410  0.34710  1.0000
  C   C111      1.0  0.75769  0.89239  0.33886  1.0000
  C   C112      1.0  0.77139  0.90505  0.26260  1.0000
  C   C113      1.0  0.78400  0.93040  0.26003  1.0000
  C   C114      1.0  0.78341  0.94441  0.33310  1.0000
  C   C115      1.0  0.76979  0.93150  0.40969  1.0000
  C   C116      1.0  0.75727  0.90617  0.41254  1.0000
  C   C117      1.0  0.74927  0.83166  0.29344  1.0000
  C   C118      1.0  0.76164  0.81870  0.29258  1.0000
  C   C119      1.0  0.78442  0.82739  0.33403  1.0000
  C   C120      1.0  0.79315  0.84943  0.38132  1.0000
  C   C121      1.0  0.78022  0.86184  0.38621  1.0000
  C   C122      1.0  0.70552  0.85391  0.27267  1.0000
  C   C123      1.0  0.68018  0.84118  0.27569  1.0000
  C   C124      1.0  0.66745  0.82814  0.35349  1.0000
  C   C125      1.0  0.68155  0.82822  0.42746  1.0000
  C   C126      1.0  0.70688  0.84087  0.42439  1.0000
  H   H66       1.0  0.75329  0.80233  0.26192  1.0000
  H   H67       1.0  0.73316  0.82453  0.26078  1.0000
  H   H68       1.0  0.78749  0.87756  0.42157  1.0000
  H   H69       1.0  0.80949  0.85711  0.41234  1.0000
  H   H70       1.0  0.77242  0.89575  0.20843  1.0000
  H   H71       1.0  0.79410  0.93862  0.20402  1.0000
  H   H72       1.0  0.71393  0.86309  0.21521  1.0000
  H   H73       1.0  0.67100  0.84190  0.22045  1.0000
  H   H74       1.0  0.67338  0.81867  0.48459  1.0000
  H   H75       1.0  0.71628  0.84033  0.47917  1.0000
  H   H76       1.0  0.74770  0.89768  0.46926  1.0000
  H   H77       1.0  0.76853  0.94055  0.46434  1.0000
  N   N39       1.0  0.13856  0.86949  0.34294  1.0000
  C   C127      1.0  0.15161  0.89546  0.34078  1.0000
  C   C128      1.0  0.15106  0.85620  0.34703  1.0000
  C   C129      1.0  0.11277  0.85619  0.33882  1.0000
  C   C130      1.0  0.10011  0.85723  0.26257  1.0000
  C   C131      1.0  0.07476  0.84451  0.26003  1.0000
  C   C132      1.0  0.06076  0.82991  0.33308  1.0000
  C   C133      1.0  0.07366  0.82917  0.40967  1.0000
  C   C134      1.0  0.09899  0.84199  0.41251  1.0000
  C   C135      1.0  0.17351  0.90850  0.29341  1.0000
  C   C136      1.0  0.18647  0.93383  0.29257  1.0000
  C   C137      1.0  0.17778  0.94792  0.33403  1.0000
  C   C138      1.0  0.15573  0.93461  0.38131  1.0000
  C   C139      1.0  0.14332  0.90927  0.38618  1.0000
  C   C140      1.0  0.15124  0.84250  0.27261  1.0000
  C   C141      1.0  0.16397  0.82988  0.27560  1.0000
  C   C142      1.0  0.17701  0.83019  0.35342  1.0000
  C   C143      1.0  0.17692  0.84420  0.42739  1.0000
  C   C144      1.0  0.16428  0.85689  0.42433  1.0000
  H   H78       1.0  0.20284  0.94186  0.26190  1.0000
  H   H79       1.0  0.18063  0.89952  0.26074  1.0000
  H   H80       1.0  0.12760  0.90082  0.42154  1.0000
  H   H81       1.0  0.14806  0.94328  0.41232  1.0000
  H   H82       1.0  0.10941  0.86757  0.20840  1.0000
  H   H83       1.0  0.06653  0.84637  0.20400  1.0000
  H   H84       1.0  0.14206  0.84173  0.21513  1.0000
  H   H85       1.0  0.16324  0.81998  0.22038  1.0000
  H   H86       1.0  0.18648  0.84558  0.48452  1.0000
  H   H87       1.0  0.16482  0.86683  0.47910  1.0000
  H   H88       1.0  0.10748  0.84090  0.46920  1.0000
  H   H89       1.0  0.06462  0.81887  0.46430  1.0000
  N   N40       1.0  0.87729  0.73741  0.34301  1.0000
  C   C145      1.0  0.90325  0.75033  0.34083  1.0000
  C   C146      1.0  0.86399  0.71161  0.34711  1.0000
  C   C147      1.0  0.86398  0.74990  0.33888  1.0000
  C   C148      1.0  0.86503  0.76361  0.26262  1.0000
  C   C149      1.0  0.85230  0.77623  0.26006  1.0000
  C   C150      1.0  0.83770  0.77563  0.33312  1.0000
  C   C151      1.0  0.83697  0.76200  0.40971  1.0000
  C   C152      1.0  0.84979  0.74948  0.41256  1.0000
  C   C153      1.0  0.91629  0.74148  0.29341  1.0000
  C   C154      1.0  0.94162  0.75385  0.29255  1.0000
  C   C155      1.0  0.95572  0.77663  0.33405  1.0000
  C   C156      1.0  0.94240  0.78535  0.38136  1.0000
  C   C157      1.0  0.91707  0.77242  0.38627  1.0000
  C   C158      1.0  0.85029  0.69774  0.27268  1.0000
  C   C159      1.0  0.83767  0.67240  0.27569  1.0000
  C   C160      1.0  0.83798  0.65967  0.35349  1.0000
  C   C161      1.0  0.85199  0.67375  0.42746  1.0000
  C   C162      1.0  0.86469  0.69909  0.42440  1.0000
  H   H90       1.0  0.94965  0.74550  0.26191  1.0000
  H   H91       1.0  0.90731  0.72538  0.26076  1.0000
  H   H92       1.0  0.90862  0.77970  0.42162  1.0000
  H   H93       1.0  0.95108  0.80170  0.41239  1.0000
  H   H94       1.0  0.87536  0.76464  0.20844  1.0000
  H   H95       1.0  0.85416  0.78631  0.20403  1.0000
  H   H96       1.0  0.84952  0.70615  0.21522  1.0000
  H   H97       1.0  0.82777  0.66322  0.22047  1.0000
  H   H98       1.0  0.85338  0.66558  0.48459  1.0000
  H   H99       1.0  0.87463  0.70849  0.47918  1.0000
  H   H100      1.0  0.84870  0.73991  0.46927  1.0000
  H   H101      1.0  0.82666  0.76074  0.46434  1.0000
  N   N41       1.0  0.26776  0.13077  0.34297  1.0000
  C   C163      1.0  0.25484  0.14381  0.34079  1.0000
  C   C164      1.0  0.29355  0.14327  0.34707  1.0000
  C   C165      1.0  0.25527  0.10497  0.33883  1.0000
  C   C166      1.0  0.24156  0.09231  0.26257  1.0000
  C   C167      1.0  0.22894  0.06697  0.26002  1.0000
  C   C168      1.0  0.22953  0.05296  0.33308  1.0000
  C   C169      1.0  0.24316  0.06586  0.40967  1.0000
  C   C170      1.0  0.25568  0.09120  0.41251  1.0000
  C   C171      1.0  0.26367  0.16569  0.29332  1.0000
  C   C172      1.0  0.25131  0.17865  0.29250  1.0000
  C   C173      1.0  0.22853  0.16997  0.33401  1.0000
  C   C174      1.0  0.21981  0.14793  0.38132  1.0000
  C   C175      1.0  0.23274  0.13553  0.38623  1.0000
  C   C176      1.0  0.30743  0.14345  0.27265  1.0000
  C   C177      1.0  0.33277  0.15616  0.27568  1.0000
  C   C178      1.0  0.34550  0.16921  0.35348  1.0000
  C   C179      1.0  0.33141  0.16913  0.42745  1.0000
  C   C180      1.0  0.30607  0.15649  0.42437  1.0000
  H   H102      1.0  0.25966  0.19503  0.26188  1.0000
  H   H103      1.0  0.27979  0.17282  0.26073  1.0000
  H   H104      1.0  0.22547  0.11981  0.42160  1.0000
  H   H105      1.0  0.20346  0.14026  0.41236  1.0000
  H   H106      1.0  0.24053  0.10161  0.20840  1.0000
  H   H107      1.0  0.21885  0.05874  0.20399  1.0000
  H   H108      1.0  0.29902  0.13427  0.21518  1.0000
  H   H109      1.0  0.34195  0.15545  0.22043  1.0000
  H   H110      1.0  0.33958  0.17869  0.48456  1.0000
  H   H111      1.0  0.29667  0.15703  0.47914  1.0000
  H   H112      1.0  0.26526  0.09968  0.46922  1.0000
  H   H113      1.0  0.24443  0.05682  0.46430  1.0000
  N   N42       1.0  0.87438  0.12787  0.34296  1.0000
  C   C181      1.0  0.86134  0.10191  0.34078  1.0000
  C   C182      1.0  0.86188  0.14117  0.34705  1.0000
  C   C183      1.0  0.90018  0.14118  0.33883  1.0000
  C   C184      1.0  0.91284  0.14014  0.26257  1.0000
  C   C185      1.0  0.93818  0.15286  0.26003  1.0000
  C   C186      1.0  0.95219  0.16746  0.33309  1.0000
  C   C187      1.0  0.93929  0.16819  0.40967  1.0000
  C   C188      1.0  0.91395  0.15537  0.41251  1.0000
  C   C189      1.0  0.83945  0.08887  0.29334  1.0000
  C   C190      1.0  0.82649  0.06354  0.29251  1.0000
  C   C191      1.0  0.83517  0.04945  0.33401  1.0000
  C   C192      1.0  0.85721  0.06276  0.38132  1.0000
  C   C193      1.0  0.86962  0.08810  0.38622  1.0000
  C   C194      1.0  0.86170  0.15486  0.27262  1.0000
  C   C195      1.0  0.84898  0.16749  0.27564  1.0000
  C   C196      1.0  0.83593  0.16717  0.35343  1.0000
  C   C197      1.0  0.83601  0.15316  0.42740  1.0000
  C   C198      1.0  0.84866  0.14047  0.42435  1.0000
  H   H114      1.0  0.81011  0.05551  0.26190  1.0000
  H   H115      1.0  0.83232  0.09785  0.26075  1.0000
  H   H116      1.0  0.88534  0.09655  0.42157  1.0000
  H   H117      1.0  0.86489  0.05409  0.41234  1.0000
  H   H118      1.0  0.90354  0.12980  0.20841  1.0000
  H   H119      1.0  0.94641  0.15099  0.20400  1.0000
  H   H120      1.0  0.87088  0.15563  0.21515  1.0000
  H   H121      1.0  0.84969  0.17738  0.22039  1.0000
  H   H122      1.0  0.82646  0.15177  0.48453  1.0000
  H   H123      1.0  0.84812  0.13053  0.47912  1.0000
  H   H124      1.0  0.90547  0.15646  0.46922  1.0000
  H   H125      1.0  0.94833  0.17849  0.46432  1.0000
  N   N43       1.0  0.26581  0.52020  0.35701  1.0000
  C   C199      1.0  0.29122  0.53531  0.37111  1.0000
  C   C200      1.0  0.25346  0.49447  0.35922  1.0000
  C   C201      1.0  0.25319  0.53286  0.33951  1.0000
  C   C202      1.0  0.25949  0.54826  0.26375  1.0000
  C   C203      1.0  0.25486  0.56746  0.26219  1.0000
  C   C204      1.0  0.24338  0.57182  0.33550  1.0000
  C   C205      1.0  0.23545  0.55517  0.40790  1.0000
  C   C206      1.0  0.24020  0.53605  0.40986  1.0000
  C   C207      1.0  0.30826  0.53422  0.31437  1.0000
  C   C208      1.0  0.33251  0.55273  0.31408  1.0000
  C   C209      1.0  0.34080  0.57435  0.36413  1.0000
  C   C210      1.0  0.32352  0.57442  0.42392  1.0000
  C   C211      1.0  0.29988  0.55510  0.43058  1.0000
  C   C212      1.0  0.25110  0.48102  0.28057  1.0000
  C   C213      1.0  0.23850  0.45567  0.28182  1.0000
  C   C214      1.0  0.22738  0.44234  0.36134  1.0000
  C   C215      1.0  0.22944  0.45611  0.43941  1.0000
  C   C216      1.0  0.24225  0.48148  0.43861  1.0000
  H   H126      1.0  0.34387  0.55017  0.27399  1.0000
  H   H127      1.0  0.30293  0.52023  0.27044  1.0000
  H   H128      1.0  0.28820  0.55709  0.47135  1.0000
  H   H129      1.0  0.32731  0.58928  0.46077  1.0000
  H   H130      1.0  0.27011  0.54733  0.21435  1.0000
  H   H131      1.0  0.26201  0.57954  0.21042  1.0000
  H   H132      1.0  0.25865  0.48973  0.22137  1.0000
  H   H133      1.0  0.23776  0.44693  0.22329  1.0000
  H   H134      1.0  0.22114  0.44773  0.49817  1.0000
  H   H135      1.0  0.24322  0.49053  0.49667  1.0000
  H   H136      1.0  0.23661  0.52622  0.46787  1.0000
  H   H137      1.0  0.22742  0.55773  0.46312  1.0000
  N   N44       1.0  0.48494  0.73647  0.35717  1.0000
  C   C217      1.0  0.46986  0.74681  0.37111  1.0000
  C   C218      1.0  0.51067  0.74985  0.35932  1.0000
  C   C219      1.0  0.47228  0.71119  0.33964  1.0000
  C   C220      1.0  0.45691  0.70211  0.26381  1.0000
  C   C221      1.0  0.43768  0.67829  0.26234  1.0000
  C   C222      1.0  0.43332  0.66243  0.33558  1.0000
  C   C223      1.0  0.44998  0.67112  0.40795  1.0000
  C   C224      1.0  0.46904  0.69502  0.41005  1.0000
  C   C225      1.0  0.47092  0.76491  0.31431  1.0000
  C   C226      1.0  0.45241  0.77065  0.31395  1.0000
  C   C227      1.0  0.43079  0.75733  0.36403  1.0000
  C   C228      1.0  0.43073  0.74001  0.42395  1.0000
  C   C229      1.0  0.45001  0.73564  0.43032  1.0000
  C   C230      1.0  0.52412  0.76095  0.28066  1.0000
  C   C231      1.0  0.54947  0.77370  0.28189  1.0000
  C   C232      1.0  0.56280  0.77591  0.36138  1.0000
  C   C233      1.0  0.54904  0.76419  0.43944  1.0000
  C   C234      1.0  0.52367  0.75163  0.43868  1.0000
  H   H138      1.0  0.45498  0.78458  0.27384  1.0000
  H   H139      1.0  0.48493  0.77359  0.27044  1.0000
  H   H140      1.0  0.44806  0.72203  0.47142  1.0000
  H   H141      1.0  0.41586  0.72893  0.46077  1.0000
  H   H142      1.0  0.45778  0.71364  0.21450  1.0000
  H   H143      1.0  0.42558  0.67336  0.21062  1.0000
  H   H144      1.0  0.51540  0.75980  0.22147  1.0000
  H   H145      1.0  0.55820  0.78171  0.22335  1.0000
  H   H146      1.0  0.55743  0.76426  0.49818  1.0000
  H   H147      1.0  0.51463  0.74354  0.49673  1.0000
  H   H148      1.0  0.47894  0.70124  0.46793  1.0000
  H   H149      1.0  0.44741  0.66054  0.46318  1.0000
  N   N45       1.0  0.26868  0.73935  0.35731  1.0000
  C   C235      1.0  0.25835  0.71393  0.37119  1.0000
  C   C236      1.0  0.25529  0.75170  0.35941  1.0000
  C   C237      1.0  0.29395  0.75196  0.33952  1.0000
  C   C238      1.0  0.30303  0.74569  0.26370  1.0000
  C   C239      1.0  0.32686  0.75029  0.26218  1.0000
  C   C240      1.0  0.34272  0.76179  0.33546  1.0000
  C   C241      1.0  0.33401  0.76974  0.40785  1.0000
  C   C242      1.0  0.31012  0.76490  0.40995  1.0000
  C   C243      1.0  0.24024  0.69689  0.31442  1.0000
  C   C244      1.0  0.23449  0.67264  0.31408  1.0000
  C   C245      1.0  0.24782  0.66434  0.36410  1.0000
  C   C246      1.0  0.26518  0.68161  0.42388  1.0000
  C   C247      1.0  0.26954  0.70526  0.43034  1.0000
  C   C248      1.0  0.24421  0.75405  0.28072  1.0000
  C   C249      1.0  0.23146  0.76666  0.28192  1.0000
  C   C250      1.0  0.22924  0.77778  0.36142  1.0000
  C   C251      1.0  0.24094  0.77572  0.43951  1.0000
  C   C252      1.0  0.25350  0.76291  0.43878  1.0000
  H   H150      1.0  0.22057  0.66129  0.27397  1.0000
  H   H151      1.0  0.23156  0.70222  0.27057  1.0000
  H   H152      1.0  0.28315  0.71692  0.47142  1.0000
  H   H153      1.0  0.27625  0.67782  0.46077  1.0000
  H   H154      1.0  0.29150  0.73501  0.21442  1.0000
  H   H155      1.0  0.33179  0.74311  0.21053  1.0000
  H   H156      1.0  0.24538  0.74650  0.22154  1.0000
  H   H157      1.0  0.22346  0.76739  0.22337  1.0000
  H   H158      1.0  0.24086  0.78403  0.49826  1.0000
  H   H159      1.0  0.26158  0.76195  0.49685  1.0000
  H   H160      1.0  0.30390  0.76858  0.46783  1.0000
  H   H161      1.0  0.34461  0.77776  0.46304  1.0000
  N   N46       1.0  0.74713  0.47716  0.35714  1.0000
  C   C253      1.0  0.72170  0.46207  0.37110  1.0000
  C   C254      1.0  0.75948  0.50288  0.35929  1.0000
  C   C255      1.0  0.75974  0.46449  0.33960  1.0000
  C   C256      1.0  0.75342  0.44909  0.26388  1.0000
  C   C257      1.0  0.75809  0.42991  0.26218  1.0000
  C   C258      1.0  0.76956  0.42554  0.33549  1.0000
  C   C259      1.0  0.77748  0.44217  0.40794  1.0000
  C   C260      1.0  0.77270  0.46127  0.40998  1.0000
  C   C261      1.0  0.70467  0.46312  0.31429  1.0000
  C   C262      1.0  0.68041  0.44461  0.31395  1.0000
  C   C263      1.0  0.67212  0.42299  0.36403  1.0000
  C   C264      1.0  0.68939  0.42293  0.42389  1.0000
  C   C265      1.0  0.71304  0.44223  0.43032  1.0000
  C   C266      1.0  0.76182  0.51633  0.28064  1.0000
  C   C267      1.0  0.77443  0.54168  0.28186  1.0000
  C   C268      1.0  0.78556  0.55502  0.36135  1.0000
  C   C269      1.0  0.78352  0.54125  0.43941  1.0000
  C   C270      1.0  0.77071  0.51589  0.43864  1.0000
  H   H162      1.0  0.66906  0.44718  0.27385  1.0000
  H   H163      1.0  0.70999  0.47713  0.27041  1.0000
  H   H164      1.0  0.72470  0.44029  0.47145  1.0000
  H   H165      1.0  0.68560  0.40808  0.46085  1.0000
  H   H166      1.0  0.74284  0.45003  0.21435  1.0000
  H   H167      1.0  0.75093  0.41781  0.21045  1.0000
  H   H168      1.0  0.75425  0.50762  0.22145  1.0000
  H   H169      1.0  0.77515  0.55042  0.22333  1.0000
  H   H170      1.0  0.79184  0.54964  0.49814  1.0000
  H   H171      1.0  0.76976  0.50684  0.49669  1.0000
  H   H172      1.0  0.77633  0.47111  0.46798  1.0000
  H   H173      1.0  0.78549  0.43960  0.46316  1.0000
  N   N47       1.0  0.52801  0.26086  0.35714  1.0000
  C   C271      1.0  0.54310  0.25053  0.37102  1.0000
  C   C272      1.0  0.50228  0.24749  0.35929  1.0000
  C   C273      1.0  0.54068  0.28615  0.33962  1.0000
  C   C274      1.0  0.55605  0.29520  0.26383  1.0000
  C   C275      1.0  0.57525  0.31904  0.26228  1.0000
  C   C276      1.0  0.57960  0.33491  0.33550  1.0000
  C   C277      1.0  0.56296  0.32619  0.40796  1.0000
  C   C278      1.0  0.54387  0.30230  0.41005  1.0000
  C   C279      1.0  0.54201  0.23241  0.31429  1.0000
  C   C280      1.0  0.56051  0.22665  0.31398  1.0000
  C   C281      1.0  0.58213  0.23996  0.36409  1.0000
  C   C282      1.0  0.58221  0.25731  0.42392  1.0000
  C   C283      1.0  0.56292  0.26169  0.43034  1.0000
  C   C284      1.0  0.48884  0.23639  0.28063  1.0000
  C   C285      1.0  0.46348  0.22364  0.28186  1.0000
  C   C286      1.0  0.45015  0.22143  0.36135  1.0000
  C   C287      1.0  0.46392  0.23315  0.43943  1.0000
  C   C288      1.0  0.48928  0.24571  0.43866  1.0000
  H   H174      1.0  0.55793  0.21272  0.27392  1.0000
  H   H175      1.0  0.52800  0.22374  0.27041  1.0000
  H   H176      1.0  0.56487  0.27530  0.47145  1.0000
  H   H177      1.0  0.59706  0.26836  0.46089  1.0000
  H   H178      1.0  0.55510  0.28369  0.21427  1.0000
  H   H179      1.0  0.58731  0.32401  0.21039  1.0000
  H   H180      1.0  0.49755  0.23755  0.22145  1.0000
  H   H181      1.0  0.45475  0.21563  0.22333  1.0000
  H   H182      1.0  0.45552  0.23307  0.49817  1.0000
  H   H183      1.0  0.49833  0.25379  0.49672  1.0000
  H   H184      1.0  0.53403  0.29608  0.46806  1.0000
  H   H185      1.0  0.56554  0.33677  0.46320  1.0000
  N   N48       1.0  0.74426  0.25801  0.35716  1.0000
  C   C289      1.0  0.75456  0.28342  0.37117  1.0000
  C   C290      1.0  0.75763  0.24566  0.35932  1.0000
  C   C291      1.0  0.71898  0.24540  0.33945  1.0000
  C   C292      1.0  0.70991  0.25171  0.26369  1.0000
  C   C293      1.0  0.68608  0.24707  0.26217  1.0000
  C   C294      1.0  0.67022  0.23555  0.33540  1.0000
  C   C295      1.0  0.67894  0.22761  0.40781  1.0000
  C   C296      1.0  0.70283  0.23244  0.40990  1.0000
  C   C297      1.0  0.77269  0.30045  0.31442  1.0000
  C   C298      1.0  0.77844  0.32471  0.31410  1.0000
  C   C299      1.0  0.76511  0.33301  0.36412  1.0000
  C   C300      1.0  0.74777  0.31574  0.42398  1.0000
  C   C301      1.0  0.74342  0.29209  0.43050  1.0000
  C   C302      1.0  0.76871  0.24329  0.28064  1.0000
  C   C303      1.0  0.78146  0.23069  0.28187  1.0000
  C   C304      1.0  0.78370  0.21959  0.36140  1.0000
  C   C305      1.0  0.77201  0.22167  0.43949  1.0000
  C   C306      1.0  0.75945  0.23447  0.43872  1.0000
  H   H186      1.0  0.79236  0.33606  0.27395  1.0000
  H   H187      1.0  0.78135  0.29511  0.27050  1.0000
  H   H188      1.0  0.72979  0.28041  0.47148  1.0000
  H   H189      1.0  0.73671  0.31953  0.46089  1.0000
  H   H190      1.0  0.72143  0.26229  0.21415  1.0000
  H   H191      1.0  0.68110  0.25416  0.21030  1.0000
  H   H192      1.0  0.76754  0.25083  0.22143  1.0000
  H   H193      1.0  0.78946  0.22995  0.22332  1.0000
  H   H194      1.0  0.77210  0.21336  0.49826  1.0000
  H   H195      1.0  0.75137  0.23544  0.49679  1.0000
  H   H196      1.0  0.70906  0.22882  0.46790  1.0000
  H   H197      1.0  0.66837  0.21962  0.46309  1.0000
  C   C307      1.0  0.21454  0.41621  0.36187  1.0000
  C   C308      1.0  0.21653  0.40230  0.43262  1.0000
  C   C309      1.0  0.20372  0.37664  0.43026  1.0000
  C   C310      1.0  0.18830  0.36369  0.35726  1.0000
  N   N49       1.0  0.20735  0.36482  0.49920  1.0000
  C   C311      1.0  0.22204  0.37585  0.57022  1.0000
  C   C312      1.0  0.23448  0.40097  0.57363  1.0000
  N   N50       1.0  0.23134  0.41298  0.50435  1.0000
  H   H198      1.0  0.22387  0.36590  0.62000  1.0000
  N   N51       1.0  0.24994  0.41302  0.64646  1.0000
  H   H199      1.0  0.26662  0.42468  0.62117  1.0000
  C   C313      1.0  0.58893  0.78920  0.36190  1.0000
  C   C314      1.0  0.60284  0.80510  0.43264  1.0000
  C   C315      1.0  0.62850  0.81795  0.43029  1.0000
  C   C316      1.0  0.64146  0.81549  0.35729  1.0000
  N   N52       1.0  0.64032  0.83340  0.49925  1.0000
  C   C317      1.0  0.62929  0.83705  0.57029  1.0000
  C   C318      1.0  0.60416  0.82437  0.57368  1.0000
  N   N53       1.0  0.59216  0.80923  0.50437  1.0000
  H   H200      1.0  0.63924  0.84883  0.62008  1.0000
  N   N54       1.0  0.59211  0.82778  0.64650  1.0000
  H   H201      1.0  0.58047  0.83282  0.62119  1.0000
  C   C319      1.0  0.21594  0.79061  0.36191  1.0000
  C   C320      1.0  0.20003  0.78862  0.43263  1.0000
  C   C321      1.0  0.18718  0.80142  0.43022  1.0000
  C   C322      1.0  0.18965  0.81684  0.35722  1.0000
  N   N55       1.0  0.17172  0.79778  0.49913  1.0000
  C   C323      1.0  0.16805  0.78310  0.57016  1.0000
  C   C324      1.0  0.18075  0.77067  0.57365  1.0000
  N   N56       1.0  0.19590  0.77382  0.50439  1.0000
  H   H202      1.0  0.15626  0.78127  0.61993  1.0000
  N   N57       1.0  0.17734  0.75524  0.64654  1.0000
  H   H203      1.0  0.17236  0.73856  0.62130  1.0000
  C   C325      1.0  0.79840  0.58115  0.36187  1.0000
  C   C326      1.0  0.79641  0.59506  0.43262  1.0000
  C   C327      1.0  0.80922  0.62071  0.43028  1.0000
  C   C328      1.0  0.82464  0.63367  0.35728  1.0000
  N   N58       1.0  0.80559  0.63253  0.49925  1.0000
  C   C329      1.0  0.79091  0.62150  0.57028  1.0000
  C   C330      1.0  0.77846  0.59637  0.57366  1.0000
  N   N59       1.0  0.78160  0.58437  0.50435  1.0000
  H   H204      1.0  0.78908  0.63145  0.62009  1.0000
  N   N60       1.0  0.76300  0.58432  0.64647  1.0000
  H   H205      1.0  0.74631  0.57268  0.62116  1.0000
  H   H206      1.0  0.77207  0.55697  0.66661  1.0000
  C   C331      1.0  0.42402  0.20814  0.36187  1.0000
  C   C332      1.0  0.41011  0.19224  0.43262  1.0000
  C   C333      1.0  0.38445  0.17940  0.43028  1.0000
  C   C334      1.0  0.37150  0.18186  0.35728  1.0000
  N   N61       1.0  0.37263  0.16395  0.49923  1.0000
  C   C335      1.0  0.38366  0.16029  0.57027  1.0000
  C   C336      1.0  0.40879  0.17297  0.57365  1.0000
  N   N62       1.0  0.42079  0.18812  0.50435  1.0000
  H   H207      1.0  0.37371  0.14852  0.62007  1.0000
  N   N63       1.0  0.42083  0.16956  0.64648  1.0000
  H   H208      1.0  0.43248  0.16453  0.62119  1.0000
  C   C337      1.0  0.79700  0.20675  0.36191  1.0000
  C   C338      1.0  0.81290  0.20874  0.43263  1.0000
  C   C339      1.0  0.82576  0.19594  0.43023  1.0000
  C   C340      1.0  0.82329  0.18052  0.35724  1.0000
  N   N64       1.0  0.84122  0.19958  0.49915  1.0000
  C   C341      1.0  0.84488  0.21426  0.57018  1.0000
  C   C342      1.0  0.83219  0.22669  0.57365  1.0000
  N   N65       1.0  0.81703  0.22355  0.50439  1.0000
  H   H209      1.0  0.85667  0.21609  0.61994  1.0000
  N   N66       1.0  0.83560  0.24213  0.64653  1.0000
  H   H210      1.0  0.84058  0.25881  0.62129  1.0000
  C   C343      1.0  0.18816  0.19494  0.40456  1.0000
  C   C344      1.0  0.20085  0.18230  0.40406  1.0000
  H   H211      1.0  0.19975  0.17280  0.46087  1.0000
  H   H212      1.0  0.17817  0.19345  0.46052  1.0000
  C   C345      1.0  0.22993  0.19784  0.61960  1.0000
  H   H213      1.0  0.21725  0.20311  0.59518  1.0000
  H   H214      1.0  0.22014  0.17895  0.63905  1.0000
  H   H215      1.0  0.24202  0.20000  0.56409  1.0000
  C   C346      1.0  0.81021  0.98411  0.40456  1.0000
  C   C347      1.0  0.82285  0.00944  0.40406  1.0000
  H   H216      1.0  0.83235  0.01784  0.46087  1.0000
  H   H217      1.0  0.81169  0.97560  0.46052  1.0000
  C   C348      1.0  0.80734  0.02299  0.61968  1.0000
  H   H218      1.0  0.80209  0.00504  0.59526  1.0000
  H   H219      1.0  0.82622  0.03209  0.63922  1.0000
  H   H220      1.0  0.80519  0.03292  0.56414  1.0000
  C   C349      1.0  0.02105  0.81699  0.40457  1.0000
  C   C350      1.0  0.99573  0.80431  0.40408  1.0000
  H   H221      1.0  0.98733  0.80541  0.46090  1.0000
  H   H222      1.0  0.02956  0.82698  0.46054  1.0000
  C   C351      1.0  0.98221  0.77521  0.61953  1.0000
  H   H223      1.0  0.00017  0.78786  0.59509  1.0000
  H   H224      1.0  0.97315  0.78505  0.63887  1.0000
  H   H225      1.0  0.97227  0.76312  0.56406  1.0000
  C   C352      1.0  0.82478  0.80242  0.40458  1.0000
  C   C353      1.0  0.81210  0.81507  0.40408  1.0000
  H   H226      1.0  0.81321  0.82457  0.46089  1.0000
  H   H227      1.0  0.83478  0.80391  0.46054  1.0000
  C   C354      1.0  0.78302  0.79951  0.61961  1.0000
  H   H228      1.0  0.79570  0.79424  0.59518  1.0000
  H   H229      1.0  0.79282  0.81841  0.63905  1.0000
  H   H230      1.0  0.77093  0.79735  0.56411  1.0000
  C   C355      1.0  0.20274  0.01325  0.40454  1.0000
  C   C356      1.0  0.19010  0.98793  0.40406  1.0000
  H   H231      1.0  0.18060  0.97953  0.46088  1.0000
  H   H232      1.0  0.20126  0.02176  0.46052  1.0000
  C   C357      1.0  0.20567  0.97440  0.61955  1.0000
  H   H233      1.0  0.21097  0.99236  0.59510  1.0000
  H   H234      1.0  0.18678  0.96533  0.63892  1.0000
  H   H235      1.0  0.20783  0.96447  0.56407  1.0000
  C   C358      1.0  0.99189  0.18037  0.40457  1.0000
  C   C359      1.0  0.01722  0.19305  0.40408  1.0000
  H   H236      1.0  0.02561  0.19195  0.46089  1.0000
  H   H237      1.0  0.98338  0.17038  0.46053  1.0000
  C   C360      1.0  0.03074  0.22215  0.61955  1.0000
  H   H238      1.0  0.01278  0.20950  0.59511  1.0000
  H   H239      1.0  0.03980  0.21231  0.63889  1.0000
  H   H240      1.0  0.04068  0.23424  0.56407  1.0000
  C   C361      1.0  0.25052  0.60787  0.42003  1.0000
  C   C362      1.0  0.25156  0.63016  0.42626  1.0000
  H   H241      1.0  0.25752  0.63893  0.48623  1.0000
  H   H242      1.0  0.25645  0.60234  0.47411  1.0000
  C   C363      1.0  0.22728  0.63560  0.63656  1.0000
  H   H243      1.0  0.22771  0.62014  0.60885  1.0000
  H   H244      1.0  0.24557  0.64981  0.65126  1.0000
  H   H245      1.0  0.21973  0.64208  0.58517  1.0000
  C   C364      1.0  0.39727  0.63352  0.42009  1.0000
  C   C365      1.0  0.37497  0.61228  0.42629  1.0000
  H   H246      1.0  0.36620  0.60946  0.48627  1.0000
  H   H247      1.0  0.40279  0.64497  0.47418  1.0000
  C   C366      1.0  0.36954  0.58254  0.63652  1.0000
  H   H248      1.0  0.38501  0.59844  0.60880  1.0000
  H   H249      1.0  0.35534  0.58663  0.65114  1.0000
  H   H250      1.0  0.36308  0.56851  0.58516  1.0000
  C   C367      1.0  0.37162  0.75464  0.41998  1.0000
  C   C368      1.0  0.39287  0.75360  0.42621  1.0000
  H   H251      1.0  0.39569  0.74765  0.48618  1.0000
  H   H252      1.0  0.36018  0.74872  0.47408  1.0000
  C   C369      1.0  0.42262  0.77791  0.63646  1.0000
  H   H253      1.0  0.40672  0.77747  0.60873  1.0000
  H   H254      1.0  0.41854  0.75963  0.65109  1.0000
  H   H255      1.0  0.43665  0.78548  0.58509  1.0000
  C   C370      1.0  0.76241  0.38948  0.42003  1.0000
  C   C371      1.0  0.76137  0.36719  0.42627  1.0000
  H   H256      1.0  0.75541  0.35842  0.48624  1.0000
  H   H257      1.0  0.75648  0.39501  0.47411  1.0000
  C   C372      1.0  0.78563  0.36173  0.63658  1.0000
  H   H258      1.0  0.78520  0.37719  0.60886  1.0000
  H   H259      1.0  0.76735  0.34753  0.65129  1.0000
  H   H260      1.0  0.79318  0.35525  0.58518  1.0000
  C   C373      1.0  0.61565  0.36382  0.42003  1.0000
  C   C374      1.0  0.63794  0.38507  0.42624  1.0000
  H   H261      1.0  0.64671  0.38789  0.48621  1.0000
  H   H262      1.0  0.61013  0.35237  0.47413  1.0000
  C   C375      1.0  0.64336  0.41480  0.63648  1.0000
  H   H263      1.0  0.62789  0.39890  0.60877  1.0000
  H   H264      1.0  0.65756  0.41072  0.65111  1.0000
  H   H265      1.0  0.64982  0.42883  0.58511  1.0000
  C   C376      1.0  0.64131  0.24267  0.41999  1.0000
  C   C377      1.0  0.62005  0.24370  0.42625  1.0000
  H   H266      1.0  0.61723  0.24965  0.48623  1.0000
  H   H267      1.0  0.65276  0.24860  0.47407  1.0000
  C   C378      1.0  0.59029  0.21939  0.63652  1.0000
  H   H268      1.0  0.60619  0.21983  0.60878  1.0000
  H   H269      1.0  0.59437  0.23768  0.65116  1.0000
  H   H270      1.0  0.57626  0.21182  0.58515  1.0000
