data_image0
_chemical_formula_structural       C2HC5H3C2NC3NHCH3C2NC3NHCH3C2NC3NHCH3C2HC5H3C2HC5H3C2HC5H3C2HC5H3C2NC3NHCH3C2NC3NHCH3C2HC5H3C2HC5H3C2NC3NHCH3C2NC3NHCH3C2HC5H3C2HC5H3C2NC3NHCH3C2NC3NHCH3C2HC5H3C2HC5H3C2NC3NHCH3C2NC3NHCH3C2NC3NHCH3C2HC5H3CNCNCNCNCNCNCNCNCNCNCNCNCNCNCNCNCNCNCNCNCNCNCNCNCNCNCNCNCNCNCNCNCNCNCNCNCNCNCNCNCNCNCNCNCNCNCNCNC2NC3NHCH3C2HC5H3C2HC5H3C2HC5H3C2NC3NHCH3C2NC3NHCH3C2NC3NHCH3C2NC3NHCH3C2HC5H3C2HC5H3C2NC3NHCH3C2NC3NHCH3C2HC5H3C2HC5H3C2NC3NHCH3C2NC3NHCH3C2HC5H3C2HC5H3C2NC3NHCH3C2NC3NHCH3C2HC5H3C2HC5H3C2HC5H3C2NC3NHCH3
_chemical_formula_sum              "C360 H192 N96"
_cell_length_a       80.9097
_cell_length_b       41.7153
_cell_length_c       14.8679
_cell_angle_alpha    90
_cell_angle_beta     90
_cell_angle_gamma    90

_space_group_name_H-M_alt    "P 1"
_space_group_IT_number       1

loop_
  _space_group_symop_operation_xyz
  'x, y, z'

loop_
  _atom_site_type_symbol
  _atom_site_label
  _atom_site_symmetry_multiplicity
  _atom_site_fract_x
  _atom_site_fract_y
  _atom_site_fract_z
  _atom_site_occupancy
  C   C1        1.0  0.49558  0.47486  0.25954  1.0000
  C   C2        1.0  0.48702  0.44532  0.26241  1.0000
  H   H1        1.0  0.48394  0.43415  0.20336  1.0000
  C   C3        1.0  0.52604  0.57819  0.34151  1.0000
  C   C4        1.0  0.52155  0.56362  0.25930  1.0000
  C   C5        1.0  0.51302  0.53400  0.25803  1.0000
  C   C6        1.0  0.50841  0.51904  0.17664  1.0000
  C   C7        1.0  0.49980  0.48973  0.17738  1.0000
  H   H2        1.0  0.51127  0.52934  0.11617  1.0000
  H   H3        1.0  0.49663  0.47938  0.11743  1.0000
  H   H4        1.0  0.52433  0.57488  0.19996  1.0000
  C   C8        1.0  0.02593  0.93066  0.33920  1.0000
  C   C9        1.0  0.02102  0.94635  0.25861  1.0000
  N   N1        1.0  0.01281  0.97479  0.26437  1.0000
  C   C10       1.0  0.00873  0.98970  0.34262  1.0000
  C   C11       1.0  0.00002  0.01918  0.34322  1.0000
  C   C12       1.0  0.98735  0.06246  0.26250  1.0000
  N   N2        1.0  0.99558  0.03406  0.26538  1.0000
  H   H5        1.0  0.98474  0.07237  0.20126  1.0000
  C   C13       1.0  0.02396  0.93402  0.16657  1.0000
  H   H6        1.0  0.03070  0.91140  0.16577  1.0000
  H   H7        1.0  0.03112  0.95155  0.12844  1.0000
  H   H8        1.0  0.01213  0.93033  0.13285  1.0000
  C   C14       1.0  0.35176  0.31003  0.33993  1.0000
  C   C15       1.0  0.36069  0.31616  0.25938  1.0000
  N   N3        1.0  0.37672  0.32607  0.26521  1.0000
  C   C16       1.0  0.38508  0.33070  0.34347  1.0000
  C   C17       1.0  0.40183  0.34068  0.34416  1.0000
  C   C18       1.0  0.42643  0.35498  0.26361  1.0000
  N   N4        1.0  0.41029  0.34597  0.26639  1.0000
  H   H9        1.0  0.43200  0.35778  0.20238  1.0000
  C   C19       1.0  0.35401  0.31242  0.16727  1.0000
  H   H10       1.0  0.34117  0.30449  0.16643  1.0000
  H   H11       1.0  0.36138  0.29481  0.13066  1.0000
  H   H12       1.0  0.35471  0.33533  0.13202  1.0000
  C   C20       1.0  0.65714  0.69886  0.33987  1.0000
  C   C21       1.0  0.64821  0.69264  0.25937  1.0000
  N   N5        1.0  0.63219  0.68275  0.26528  1.0000
  C   C22       1.0  0.62382  0.67822  0.34357  1.0000
  C   C23       1.0  0.60707  0.66824  0.34435  1.0000
  C   C24       1.0  0.58247  0.65378  0.26395  1.0000
  N   N6        1.0  0.59862  0.66281  0.26663  1.0000
  H   H13       1.0  0.57691  0.65088  0.20276  1.0000
  C   C25       1.0  0.65490  0.69631  0.16724  1.0000
  H   H14       1.0  0.66774  0.70423  0.16636  1.0000
  H   H15       1.0  0.64753  0.71389  0.13051  1.0000
  H   H16       1.0  0.65419  0.67337  0.13214  1.0000
  C   C26       1.0  0.13221  0.82484  0.25872  1.0000
  C   C27       1.0  0.14885  0.81454  0.26167  1.0000
  H   H17       1.0  0.15499  0.81008  0.20267  1.0000
  C   C28       1.0  0.07347  0.85937  0.34036  1.0000
  C   C29       1.0  0.08178  0.85394  0.25824  1.0000
  C   C30       1.0  0.09862  0.84473  0.25706  1.0000
  C   C31       1.0  0.10711  0.83891  0.17573  1.0000
  C   C32       1.0  0.12375  0.82912  0.17655  1.0000
  H   H18       1.0  0.10123  0.84159  0.11527  1.0000
  H   H19       1.0  0.12958  0.82493  0.11665  1.0000
  H   H20       1.0  0.07544  0.85613  0.19891  1.0000
  C   C33       1.0  0.87666  0.18421  0.25870  1.0000
  C   C34       1.0  0.86002  0.19449  0.26170  1.0000
  H   H21       1.0  0.85389  0.19903  0.20274  1.0000
  C   C35       1.0  0.93540  0.14955  0.34003  1.0000
  C   C36       1.0  0.92709  0.15518  0.25798  1.0000
  C   C37       1.0  0.91025  0.16436  0.25689  1.0000
  C   C38       1.0  0.90177  0.17029  0.17561  1.0000
  C   C39       1.0  0.88513  0.18005  0.17649  1.0000
  H   H22       1.0  0.90765  0.16771  0.11512  1.0000
  H   H23       1.0  0.87929  0.18432  0.11663  1.0000
  H   H24       1.0  0.93344  0.15308  0.19863  1.0000
  C   C40       1.0  0.50545  0.27623  0.25834  1.0000
  C   C41       1.0  0.49497  0.30327  0.26162  1.0000
  H   H25       1.0  0.49068  0.31301  0.20281  1.0000
  C   C42       1.0  0.54128  0.18005  0.34061  1.0000
  C   C43       1.0  0.53592  0.19327  0.25819  1.0000
  C   C44       1.0  0.52610  0.22128  0.25666  1.0000
  C   C45       1.0  0.52035  0.23468  0.17528  1.0000
  C   C46       1.0  0.51015  0.26197  0.17610  1.0000
  H   H26       1.0  0.52343  0.22455  0.11488  1.0000
  H   H27       1.0  0.50605  0.27113  0.11628  1.0000
  H   H28       1.0  0.53873  0.18184  0.19915  1.0000
  C   C47       1.0  0.50340  0.73257  0.25851  1.0000
  C   C48       1.0  0.51386  0.70549  0.26189  1.0000
  H   H29       1.0  0.51813  0.69569  0.20311  1.0000
  C   C49       1.0  0.46765  0.82888  0.34045  1.0000
  C   C50       1.0  0.47299  0.81562  0.25807  1.0000
  C   C51       1.0  0.48280  0.78758  0.25664  1.0000
  C   C52       1.0  0.48853  0.77412  0.17530  1.0000
  C   C53       1.0  0.49870  0.74678  0.17622  1.0000
  H   H30       1.0  0.48546  0.78423  0.11487  1.0000
  H   H31       1.0  0.50279  0.73758  0.11643  1.0000
  H   H32       1.0  0.47019  0.82703  0.19897  1.0000
  C   C54       1.0  0.01862  0.81688  0.33966  1.0000
  C   C55       1.0  0.01257  0.80278  0.25915  1.0000
  N   N7        1.0  0.00250  0.77674  0.26534  1.0000
  C   C56       1.0  0.99767  0.76297  0.34387  1.0000
  C   C57       1.0  0.98734  0.73563  0.34457  1.0000
  C   C58       1.0  0.97252  0.69529  0.26333  1.0000
  N   N8        1.0  0.98204  0.72207  0.26649  1.0000
  H   H33       1.0  0.96953  0.68587  0.20198  1.0000
  C   C59       1.0  0.01644  0.81391  0.16694  1.0000
  H   H34       1.0  0.02456  0.83476  0.16588  1.0000
  H   H35       1.0  0.00500  0.82027  0.13239  1.0000
  H   H36       1.0  0.02250  0.79464  0.12978  1.0000
  C   C60       1.0  0.99026  0.19196  0.33933  1.0000
  C   C61       1.0  0.99626  0.20619  0.25888  1.0000
  N   N9        1.0  0.00633  0.23222  0.26517  1.0000
  C   C62       1.0  0.01120  0.24591  0.34375  1.0000
  C   C63       1.0  0.02153  0.27326  0.34454  1.0000
  C   C64       1.0  0.03637  0.31361  0.26347  1.0000
  N   N10       1.0  0.02684  0.28684  0.26653  1.0000
  H   H37       1.0  0.03937  0.32305  0.20216  1.0000
  C   C65       1.0  0.99234  0.19519  0.16661  1.0000
  H   H38       1.0  0.98423  0.17432  0.16547  1.0000
  H   H39       1.0  0.00377  0.18890  0.13179  1.0000
  H   H40       1.0  0.98626  0.21450  0.12978  1.0000
  C   C66       1.0  0.30731  0.10376  0.25883  1.0000
  C   C67       1.0  0.30602  0.06995  0.26155  1.0000
  H   H41       1.0  0.30613  0.05728  0.20249  1.0000
  C   C68       1.0  0.31332  0.22233  0.34090  1.0000
  C   C69       1.0  0.31271  0.20534  0.25876  1.0000
  C   C70       1.0  0.31071  0.17161  0.25749  1.0000
  C   C71       1.0  0.31019  0.15420  0.17610  1.0000
  C   C72       1.0  0.30850  0.12064  0.17676  1.0000
  H   H42       1.0  0.31115  0.16579  0.11568  1.0000
  H   H43       1.0  0.30828  0.10861  0.11680  1.0000
  H   H44       1.0  0.31387  0.21761  0.19942  1.0000
  C   C73       1.0  0.70159  0.90512  0.25877  1.0000
  C   C74       1.0  0.70287  0.93893  0.26149  1.0000
  H   H45       1.0  0.70276  0.95160  0.20243  1.0000
  C   C75       1.0  0.69558  0.78656  0.34088  1.0000
  C   C76       1.0  0.69620  0.80354  0.25872  1.0000
  C   C77       1.0  0.69819  0.83727  0.25745  1.0000
  C   C78       1.0  0.69871  0.85467  0.17606  1.0000
  C   C79       1.0  0.70040  0.88824  0.17672  1.0000
  H   H46       1.0  0.69775  0.84308  0.11564  1.0000
  H   H47       1.0  0.70061  0.90027  0.11674  1.0000
  H   H48       1.0  0.69502  0.79127  0.19939  1.0000
  C   C80       1.0  0.20377  0.55328  0.34024  1.0000
  C   C81       1.0  0.20317  0.57160  0.25962  1.0000
  N   N11       1.0  0.20194  0.60414  0.26522  1.0000
  C   C82       1.0  0.20113  0.62104  0.34332  1.0000
  C   C83       1.0  0.19945  0.65489  0.34385  1.0000
  C   C84       1.0  0.19690  0.70449  0.26322  1.0000
  N   N12       1.0  0.19874  0.67209  0.26608  1.0000
  H   H49       1.0  0.19629  0.71556  0.20197  1.0000
  C   C85       1.0  0.20343  0.55803  0.16760  1.0000
  H   H50       1.0  0.20462  0.53200  0.16692  1.0000
  H   H51       1.0  0.21385  0.56806  0.13039  1.0000
  H   H52       1.0  0.19200  0.56436  0.13285  1.0000
  C   C86       1.0  0.80515  0.45562  0.34025  1.0000
  C   C87       1.0  0.80572  0.43731  0.25963  1.0000
  N   N13       1.0  0.80693  0.40476  0.26522  1.0000
  C   C88       1.0  0.80775  0.38787  0.34333  1.0000
  C   C89       1.0  0.80942  0.35401  0.34385  1.0000
  C   C90       1.0  0.81196  0.30441  0.26321  1.0000
  N   N14       1.0  0.81013  0.33681  0.26608  1.0000
  H   H53       1.0  0.81256  0.29335  0.20195  1.0000
  C   C91       1.0  0.80546  0.45088  0.16760  1.0000
  H   H54       1.0  0.80428  0.47691  0.16694  1.0000
  H   H55       1.0  0.79502  0.44088  0.13046  1.0000
  H   H56       1.0  0.81687  0.44451  0.13280  1.0000
  C   C92       1.0  0.24827  0.41295  0.26005  1.0000
  C   C93       1.0  0.23535  0.43577  0.26286  1.0000
  H   H57       1.0  0.23038  0.44397  0.20377  1.0000
  C   C94       1.0  0.29328  0.33171  0.34150  1.0000
  C   C95       1.0  0.28689  0.34348  0.25946  1.0000
  C   C96       1.0  0.27404  0.36655  0.25841  1.0000
  C   C97       1.0  0.26747  0.37850  0.17709  1.0000
  C   C98       1.0  0.25471  0.40142  0.17790  1.0000
  H   H58       1.0  0.27189  0.37058  0.11657  1.0000
  H   H59       1.0  0.25015  0.40959  0.11795  1.0000
  H   H60       1.0  0.29168  0.33525  0.19999  1.0000
  C   C99       1.0  0.76062  0.59593  0.26008  1.0000
  C   C100      1.0  0.77355  0.57309  0.26293  1.0000
  H   H61       1.0  0.77852  0.56489  0.20386  1.0000
  C   C101      1.0  0.71562  0.67718  0.34145  1.0000
  C   C102      1.0  0.72201  0.66540  0.25941  1.0000
  C   C103      1.0  0.73486  0.64234  0.25839  1.0000
  C   C104      1.0  0.74144  0.63037  0.17709  1.0000
  C   C105      1.0  0.75419  0.60746  0.17792  1.0000
  H   H62       1.0  0.73701  0.63829  0.11656  1.0000
  H   H63       1.0  0.75876  0.59927  0.11798  1.0000
  H   H64       1.0  0.71723  0.67363  0.19994  1.0000
  C   C106      1.0  0.27995  0.94698  0.33880  1.0000
  C   C107      1.0  0.27308  0.93432  0.25825  1.0000
  N   N15       1.0  0.26063  0.91236  0.26394  1.0000
  C   C108      1.0  0.25409  0.90111  0.34209  1.0000
  C   C109      1.0  0.24124  0.87794  0.34278  1.0000
  C   C110      1.0  0.22242  0.84389  0.26247  1.0000
  N   N16       1.0  0.23474  0.86608  0.26512  1.0000
  H   H65       1.0  0.21816  0.83636  0.20129  1.0000
  C   C111      1.0  0.27852  0.94282  0.16622  1.0000
  H   H66       1.0  0.28838  0.96064  0.16545  1.0000
  H   H67       1.0  0.26808  0.95250  0.12853  1.0000
  H   H68       1.0  0.28300  0.92136  0.13202  1.0000
  C   C112      1.0  0.72893  0.06189  0.33875  1.0000
  C   C113      1.0  0.73580  0.07458  0.25822  1.0000
  N   N17       1.0  0.74825  0.09654  0.26393  1.0000
  C   C114      1.0  0.75478  0.10778  0.34209  1.0000
  C   C115      1.0  0.76763  0.13095  0.34280  1.0000
  C   C116      1.0  0.78645  0.16502  0.26251  1.0000
  N   N18       1.0  0.77413  0.14283  0.26514  1.0000
  H   H69       1.0  0.79071  0.17255  0.20133  1.0000
  C   C117      1.0  0.73035  0.06609  0.16618  1.0000
  H   H70       1.0  0.72050  0.04826  0.16540  1.0000
  H   H71       1.0  0.74080  0.05643  0.12847  1.0000
  H   H72       1.0  0.72586  0.08755  0.13202  1.0000
  C   C118      1.0  0.11270  0.41823  0.25715  1.0000
  C   C119      1.0  0.09619  0.40728  0.26006  1.0000
  H   H73       1.0  0.08978  0.40441  0.20113  1.0000
  C   C120      1.0  0.17002  0.45953  0.34037  1.0000
  C   C121      1.0  0.16183  0.45430  0.25783  1.0000
  C   C122      1.0  0.14557  0.44192  0.25610  1.0000
  C   C123      1.0  0.13705  0.43668  0.17455  1.0000
  C   C124      1.0  0.12076  0.42492  0.17507  1.0000
  H   H74       1.0  0.14258  0.44160  0.11423  1.0000
  H   H75       1.0  0.11480  0.42158  0.11511  1.0000
  H   H76       1.0  0.16770  0.45978  0.19872  1.0000
  C   C125      1.0  0.89620  0.59057  0.25719  1.0000
  C   C126      1.0  0.91271  0.60148  0.26004  1.0000
  H   H77       1.0  0.91913  0.60429  0.20110  1.0000
  C   C127      1.0  0.83887  0.54940  0.34055  1.0000
  C   C128      1.0  0.84706  0.55456  0.25799  1.0000
  C   C129      1.0  0.86333  0.56693  0.25623  1.0000
  C   C130      1.0  0.87185  0.57210  0.17466  1.0000
  C   C131      1.0  0.88814  0.58384  0.17513  1.0000
  H   H78       1.0  0.86632  0.56715  0.11435  1.0000
  H   H79       1.0  0.89411  0.58712  0.11515  1.0000
  H   H80       1.0  0.84120  0.54904  0.19891  1.0000
  C   C132      1.0  0.42067  0.90141  0.34150  1.0000
  C   C133      1.0  0.41171  0.90697  0.26078  1.0000
  N   N19       1.0  0.39581  0.91744  0.26661  1.0000
  C   C134      1.0  0.38770  0.92326  0.34496  1.0000
  C   C135      1.0  0.37130  0.93500  0.34534  1.0000
  C   C136      1.0  0.34736  0.95213  0.26383  1.0000
  N   N20       1.0  0.36301  0.94043  0.26718  1.0000
  H   H81       1.0  0.34199  0.95586  0.20246  1.0000
  C   C137      1.0  0.41840  0.90312  0.16869  1.0000
  H   H82       1.0  0.43109  0.89437  0.16791  1.0000
  H   H83       1.0  0.41809  0.92617  0.13400  1.0000
  H   H84       1.0  0.41078  0.88608  0.13149  1.0000
  C   C138      1.0  0.58821  0.10741  0.34153  1.0000
  C   C139      1.0  0.59717  0.10194  0.26079  1.0000
  N   N21       1.0  0.61307  0.09147  0.26657  1.0000
  C   C140      1.0  0.62118  0.08559  0.34490  1.0000
  C   C141      1.0  0.63758  0.07386  0.34524  1.0000
  C   C142      1.0  0.66154  0.05681  0.26370  1.0000
  N   N22       1.0  0.64588  0.06850  0.26707  1.0000
  H   H85       1.0  0.66690  0.05313  0.20231  1.0000
  C   C143      1.0  0.59047  0.10583  0.16873  1.0000
  H   H86       1.0  0.57777  0.11454  0.16801  1.0000
  H   H87       1.0  0.59080  0.08281  0.13391  1.0000
  H   H88       1.0  0.59808  0.12293  0.13162  1.0000
  C   C144      1.0  0.97583  0.56752  0.33965  1.0000
  C   C145      1.0  0.98211  0.55388  0.25914  1.0000
  N   N23       1.0  0.99316  0.52947  0.26572  1.0000
  C   C146      1.0  0.99870  0.51707  0.34459  1.0000
  C   C147      1.0  0.01026  0.49178  0.34535  1.0000
  C   C148      1.0  0.02708  0.45483  0.26364  1.0000
  N   N24       1.0  0.01603  0.47921  0.26700  1.0000
  H   H89       1.0  0.03079  0.44640  0.20229  1.0000
  C   C149      1.0  0.97771  0.56408  0.16678  1.0000
  H   H90       1.0  0.96877  0.58361  0.16548  1.0000
  H   H91       1.0  0.97242  0.54382  0.13030  1.0000
  H   H92       1.0  0.98882  0.57204  0.13168  1.0000
  C   C150      1.0  0.51613  0.02998  0.25768  1.0000
  C   C151      1.0  0.52761  0.05536  0.26129  1.0000
  H   H93       1.0  0.53195  0.06514  0.20261  1.0000
  C   C152      1.0  0.47578  0.94136  0.34035  1.0000
  C   C153      1.0  0.48146  0.95368  0.25757  1.0000
  C   C154      1.0  0.49295  0.97912  0.25589  1.0000
  C   C155      1.0  0.49893  0.99204  0.17440  1.0000
  C   C156      1.0  0.51043  0.01731  0.17528  1.0000
  H   H94       1.0  0.49497  0.98318  0.11394  1.0000
  H   H95       1.0  0.51459  0.02634  0.11544  1.0000
  H   H96       1.0  0.47729  0.94397  0.19847  1.0000
  C   C157      1.0  0.45261  0.36506  0.34256  1.0000
  N   N25       1.0  0.45909  0.39522  0.34333  1.0000
  C   C158      1.0  0.47578  0.39975  0.34418  1.0000
  N   N26       1.0  0.48593  0.37379  0.34474  1.0000
  C   C159      1.0  0.47964  0.34363  0.34421  1.0000
  N   N27       1.0  0.46300  0.33948  0.34332  1.0000
  C   C160      1.0  0.55629  0.64387  0.34305  1.0000
  N   N28       1.0  0.54983  0.61368  0.34260  1.0000
  C   C161      1.0  0.53314  0.60909  0.34310  1.0000
  N   N29       1.0  0.52297  0.63502  0.34389  1.0000
  C   C162      1.0  0.52923  0.66521  0.34462  1.0000
  N   N30       1.0  0.54587  0.66942  0.34428  1.0000
  C   C163      1.0  0.05627  0.86505  0.34184  1.0000
  N   N31       1.0  0.04979  0.89522  0.34110  1.0000
  C   C164      1.0  0.03309  0.89974  0.34026  1.0000
  N   N32       1.0  0.02295  0.87378  0.33971  1.0000
  C   C165      1.0  0.02924  0.84362  0.34024  1.0000
  N   N33       1.0  0.04587  0.83947  0.34112  1.0000
  C   C166      1.0  0.95259  0.14384  0.34141  1.0000
  N   N34       1.0  0.95906  0.11366  0.34186  1.0000
  C   C167      1.0  0.97575  0.10909  0.34135  1.0000
  N   N35       1.0  0.98591  0.13504  0.34055  1.0000
  C   C168      1.0  0.97964  0.16522  0.33983  1.0000
  N   N36       1.0  0.96300  0.16940  0.34018  1.0000
  C   C169      1.0  0.31622  0.25577  0.34246  1.0000
  N   N37       1.0  0.30351  0.27721  0.34280  1.0000
  C   C170      1.0  0.30645  0.30938  0.34275  1.0000
  N   N38       1.0  0.32237  0.31994  0.34151  1.0000
  C   C171      1.0  0.33524  0.29894  0.34092  1.0000
  N   N39       1.0  0.33201  0.26695  0.34124  1.0000
  C   C172      1.0  0.69268  0.75312  0.34244  1.0000
  N   N40       1.0  0.70539  0.73168  0.34277  1.0000
  C   C173      1.0  0.70245  0.69951  0.34267  1.0000
  N   N41       1.0  0.68654  0.68895  0.34140  1.0000
  C   C174      1.0  0.67367  0.70995  0.34081  1.0000
  N   N42       1.0  0.67689  0.74194  0.34118  1.0000
  C   C175      1.0  0.19266  0.75578  0.34200  1.0000
  N   N43       1.0  0.20537  0.77722  0.34165  1.0000
  C   C176      1.0  0.20243  0.80939  0.34170  1.0000
  N   N44       1.0  0.18651  0.81995  0.34293  1.0000
  C   C177      1.0  0.17364  0.79895  0.34352  1.0000
  N   N45       1.0  0.17687  0.76696  0.34321  1.0000
  C   C178      1.0  0.81619  0.25312  0.34200  1.0000
  N   N46       1.0  0.80349  0.23168  0.34166  1.0000
  C   C179      1.0  0.80643  0.19951  0.34176  1.0000
  N   N47       1.0  0.82235  0.18896  0.34304  1.0000
  C   C180      1.0  0.83522  0.20996  0.34363  1.0000
  N   N48       1.0  0.83199  0.24195  0.34325  1.0000
  C   C181      1.0  0.04837  0.35958  0.34179  1.0000
  N   N49       1.0  0.06501  0.36450  0.34213  1.0000
  C   C182      1.0  0.07114  0.39492  0.34219  1.0000
  N   N50       1.0  0.06059  0.42022  0.34235  1.0000
  C   C183      1.0  0.04403  0.41540  0.34200  1.0000
  N   N51       1.0  0.03800  0.38512  0.34224  1.0000
  C   C184      1.0  0.96052  0.64931  0.34143  1.0000
  N   N52       1.0  0.94388  0.64436  0.34254  1.0000
  C   C185      1.0  0.93776  0.61393  0.34210  1.0000
  N   N53       1.0  0.94832  0.58866  0.34085  1.0000
  C   C186      1.0  0.96488  0.59352  0.33985  1.0000
  N   N54       1.0  0.97090  0.62379  0.34047  1.0000
  C   C187      1.0  0.46052  0.85958  0.34254  1.0000
  N   N55       1.0  0.44388  0.86452  0.34226  1.0000
  C   C188      1.0  0.43775  0.89494  0.34226  1.0000
  N   N56       1.0  0.44831  0.92023  0.34214  1.0000
  C   C189      1.0  0.46486  0.91540  0.34246  1.0000
  N   N57       1.0  0.47089  0.88512  0.34214  1.0000
  C   C190      1.0  0.54838  0.14934  0.34291  1.0000
  N   N58       1.0  0.56502  0.14436  0.34185  1.0000
  C   C191      1.0  0.57113  0.11392  0.34237  1.0000
  N   N59       1.0  0.56056  0.08867  0.34366  1.0000
  C   C192      1.0  0.54400  0.09355  0.34461  1.0000
  N   N60       1.0  0.53799  0.12383  0.34392  1.0000
  C   C193      1.0  0.20285  0.51936  0.34129  1.0000
  N   N61       1.0  0.21652  0.50020  0.34309  1.0000
  C   C194      1.0  0.21501  0.46761  0.34451  1.0000
  N   N62       1.0  0.19964  0.45440  0.34405  1.0000
  C   C195      1.0  0.18592  0.47316  0.34245  1.0000
  N   N63       1.0  0.18766  0.50550  0.34078  1.0000
  C   C196      1.0  0.80605  0.48954  0.34131  1.0000
  N   N64       1.0  0.79238  0.50868  0.34311  1.0000
  C   C197      1.0  0.79388  0.54127  0.34459  1.0000
  N   N65       1.0  0.80925  0.55449  0.34422  1.0000
  C   C198      1.0  0.82297  0.53576  0.34264  1.0000
  N   N66       1.0  0.82124  0.50341  0.34090  1.0000
  C   C199      1.0  0.30604  0.01935  0.34316  1.0000
  N   N67       1.0  0.29237  0.00020  0.34133  1.0000
  C   C200      1.0  0.29388  0.96761  0.33990  1.0000
  N   N68       1.0  0.30925  0.95439  0.34036  1.0000
  C   C201      1.0  0.32297  0.97313  0.34198  1.0000
  N   N69       1.0  0.32124  0.00548  0.34367  1.0000
  C   C202      1.0  0.70284  0.98953  0.34312  1.0000
  N   N70       1.0  0.71651  0.00868  0.34131  1.0000
  C   C203      1.0  0.71500  0.04127  0.33984  1.0000
  N   N71       1.0  0.69963  0.05449  0.34022  1.0000
  C   C204      1.0  0.68591  0.03575  0.34182  1.0000
  N   N72       1.0  0.68765  0.00340  0.34356  1.0000
  C   C205      1.0  0.48295  0.43067  0.34525  1.0000
  C   C206      1.0  0.48786  0.44635  0.42584  1.0000
  N   N73       1.0  0.49608  0.47479  0.42007  1.0000
  C   C207      1.0  0.50016  0.48970  0.34183  1.0000
  C   C208      1.0  0.50887  0.51917  0.34122  1.0000
  C   C209      1.0  0.52154  0.56246  0.42192  1.0000
  N   N74       1.0  0.51331  0.53406  0.41906  1.0000
  H   H97       1.0  0.52415  0.57237  0.48316  1.0000
  C   C210      1.0  0.48493  0.43402  0.51787  1.0000
  H   H98       1.0  0.47819  0.41140  0.51868  1.0000
  H   H99       1.0  0.47778  0.45155  0.55602  1.0000
  H   H100      1.0  0.49676  0.43031  0.55156  1.0000
  C   C211      1.0  0.01330  0.97486  0.42491  1.0000
  C   C212      1.0  0.02186  0.94532  0.42204  1.0000
  H   H101      1.0  0.02494  0.93414  0.48109  1.0000
  C   C213      1.0  0.98287  0.07821  0.34292  1.0000
  C   C214      1.0  0.98735  0.06363  0.42514  1.0000
  C   C215      1.0  0.99587  0.03400  0.42640  1.0000
  C   C216      1.0  0.00048  0.01904  0.50780  1.0000
  C   C217      1.0  0.00908  0.98974  0.50707  1.0000
  H   H102      1.0  0.99762  0.02935  0.56826  1.0000
  H   H103      1.0  0.01225  0.97938  0.56702  1.0000
  H   H104      1.0  0.98457  0.07489  0.48447  1.0000
  C   C218      1.0  0.37667  0.32483  0.42570  1.0000
  C   C219      1.0  0.36003  0.31453  0.42276  1.0000
  H   H105      1.0  0.35390  0.31007  0.48176  1.0000
  C   C220      1.0  0.43541  0.35937  0.34406  1.0000
  C   C221      1.0  0.42710  0.35393  0.42619  1.0000
  C   C222      1.0  0.41026  0.34473  0.42736  1.0000
  C   C223      1.0  0.40177  0.33891  0.50869  1.0000
  C   C224      1.0  0.38513  0.32911  0.50788  1.0000
  H   H106      1.0  0.40765  0.34159  0.56916  1.0000
  H   H107      1.0  0.37930  0.32491  0.56778  1.0000
  H   H108      1.0  0.43344  0.35613  0.48551  1.0000
  C   C225      1.0  0.63223  0.68419  0.42576  1.0000
  C   C226      1.0  0.64887  0.69446  0.42274  1.0000
  H   H109      1.0  0.65500  0.69900  0.48170  1.0000
  C   C227      1.0  0.57348  0.64961  0.34445  1.0000
  C   C228      1.0  0.58179  0.65519  0.42651  1.0000
  C   C229      1.0  0.59863  0.66436  0.42759  1.0000
  C   C230      1.0  0.60712  0.67028  0.50887  1.0000
  C   C231      1.0  0.62376  0.68003  0.50797  1.0000
  H   H110      1.0  0.60123  0.66770  0.56935  1.0000
  H   H111      1.0  0.62960  0.68431  0.56783  1.0000
  H   H112      1.0  0.57544  0.65312  0.48585  1.0000
  C   C232      1.0  0.15712  0.81005  0.34451  1.0000
  C   C233      1.0  0.14819  0.81617  0.42506  1.0000
  N   N75       1.0  0.13217  0.82607  0.41923  1.0000
  C   C234      1.0  0.12380  0.83070  0.34096  1.0000
  C   C235      1.0  0.10705  0.84069  0.34027  1.0000
  C   C236      1.0  0.08245  0.85496  0.42081  1.0000
  N   N76       1.0  0.09859  0.84596  0.41804  1.0000
  H   H113      1.0  0.07688  0.85777  0.48204  1.0000
  C   C237      1.0  0.15487  0.81242  0.51717  1.0000
  H   H114      1.0  0.16771  0.80450  0.51800  1.0000
  H   H115      1.0  0.14750  0.79481  0.55376  1.0000
  H   H116      1.0  0.15416  0.83533  0.55243  1.0000
  C   C238      1.0  0.85175  0.19888  0.34457  1.0000
  C   C239      1.0  0.86067  0.19266  0.42508  1.0000
  N   N77       1.0  0.87669  0.18276  0.41918  1.0000
  C   C240      1.0  0.88506  0.17823  0.34090  1.0000
  C   C241      1.0  0.90181  0.16825  0.34012  1.0000
  C   C242      1.0  0.92640  0.15377  0.42052  1.0000
  N   N78       1.0  0.91026  0.16281  0.41783  1.0000
  H   H117      1.0  0.93196  0.15085  0.48171  1.0000
  C   C243      1.0  0.85398  0.19632  0.51721  1.0000
  H   H118      1.0  0.84115  0.20426  0.51809  1.0000
  H   H119      1.0  0.86135  0.21389  0.55394  1.0000
  H   H120      1.0  0.85468  0.17338  0.55230  1.0000
  C   C244      1.0  0.49026  0.31689  0.34477  1.0000
  C   C245      1.0  0.49631  0.30278  0.42527  1.0000
  N   N79       1.0  0.50638  0.27675  0.41906  1.0000
  C   C246      1.0  0.51122  0.26298  0.34051  1.0000
  C   C247      1.0  0.52155  0.23565  0.33979  1.0000
  C   C248      1.0  0.53637  0.19531  0.42097  1.0000
  N   N80       1.0  0.52685  0.22208  0.41785  1.0000
  H   H121      1.0  0.53936  0.18587  0.48231  1.0000
  C   C249      1.0  0.49244  0.31390  0.51749  1.0000
  H   H122      1.0  0.48432  0.33475  0.51856  1.0000
  H   H123      1.0  0.50388  0.32027  0.55203  1.0000
  H   H124      1.0  0.48639  0.29463  0.55464  1.0000
  C   C250      1.0  0.51860  0.69194  0.34509  1.0000
  C   C251      1.0  0.51260  0.70618  0.42553  1.0000
  N   N81       1.0  0.50253  0.73220  0.41923  1.0000
  C   C252      1.0  0.49766  0.74589  0.34063  1.0000
  C   C253      1.0  0.48734  0.77324  0.33983  1.0000
  C   C254      1.0  0.47251  0.81361  0.42087  1.0000
  N   N82       1.0  0.48202  0.78684  0.41783  1.0000
  H   H125      1.0  0.46950  0.82307  0.48218  1.0000
  C   C255      1.0  0.51652  0.69518  0.51781  1.0000
  H   H126      1.0  0.52463  0.67432  0.51896  1.0000
  H   H127      1.0  0.50510  0.68890  0.55264  1.0000
  H   H128      1.0  0.52260  0.71450  0.55462  1.0000
  C   C256      1.0  0.00343  0.77621  0.42606  1.0000
  C   C257      1.0  0.01391  0.80325  0.42280  1.0000
  H   H129      1.0  0.01820  0.81299  0.48162  1.0000
  C   C258      1.0  0.96764  0.68001  0.34368  1.0000
  C   C259      1.0  0.97298  0.69322  0.42614  1.0000
  C   C260      1.0  0.98279  0.72124  0.42769  1.0000
  C   C261      1.0  0.98854  0.73464  0.50909  1.0000
  C   C262      1.0  0.99873  0.76195  0.50829  1.0000
  H   H130      1.0  0.98546  0.72450  0.56947  1.0000
  H   H131      1.0  0.00283  0.77109  0.56812  1.0000
  H   H132      1.0  0.97016  0.68179  0.48518  1.0000
  C   C263      1.0  0.00546  0.23259  0.42589  1.0000
  C   C264      1.0  0.99500  0.20552  0.42253  1.0000
  H   H133      1.0  0.99073  0.19572  0.48132  1.0000
  C   C265      1.0  0.04124  0.32888  0.34387  1.0000
  C   C266      1.0  0.03587  0.31565  0.42625  1.0000
  C   C267      1.0  0.02607  0.28760  0.42772  1.0000
  C   C268      1.0  0.02033  0.27415  0.50906  1.0000
  C   C269      1.0  0.01017  0.24681  0.50817  1.0000
  H   H134      1.0  0.02341  0.28426  0.56948  1.0000
  H   H135      1.0  0.00608  0.23762  0.56797  1.0000
  H   H136      1.0  0.03869  0.32704  0.48535  1.0000
  C   C270      1.0  0.30513  0.05327  0.34424  1.0000
  C   C271      1.0  0.30573  0.07158  0.42485  1.0000
  N   N83       1.0  0.30695  0.10413  0.41926  1.0000
  C   C272      1.0  0.30776  0.12102  0.34114  1.0000
  C   C273      1.0  0.30944  0.15488  0.34061  1.0000
  C   C274      1.0  0.31198  0.20448  0.42124  1.0000
  N   N84       1.0  0.31015  0.17208  0.41838  1.0000
  H   H137      1.0  0.31259  0.21554  0.48250  1.0000
  C   C275      1.0  0.30546  0.05801  0.51688  1.0000
  H   H138      1.0  0.30427  0.03198  0.51754  1.0000
  H   H139      1.0  0.29503  0.06803  0.55404  1.0000
  H   H140      1.0  0.31688  0.06435  0.55166  1.0000
  C   C276      1.0  0.70374  0.95562  0.34417  1.0000
  C   C277      1.0  0.70317  0.93730  0.42479  1.0000
  N   N85       1.0  0.70195  0.90476  0.41920  1.0000
  C   C278      1.0  0.70114  0.88786  0.34110  1.0000
  C   C279      1.0  0.69947  0.85400  0.34057  1.0000
  C   C280      1.0  0.69693  0.80441  0.42122  1.0000
  N   N86       1.0  0.69876  0.83681  0.41835  1.0000
  H   H141      1.0  0.69631  0.79334  0.48248  1.0000
  C   C281      1.0  0.70343  0.95087  0.51682  1.0000
  H   H142      1.0  0.70461  0.97690  0.51748  1.0000
  H   H143      1.0  0.71386  0.94087  0.55396  1.0000
  H   H144      1.0  0.69202  0.94452  0.55162  1.0000
  C   C282      1.0  0.20159  0.60377  0.42564  1.0000
  C   C283      1.0  0.20288  0.56997  0.42291  1.0000
  H   H145      1.0  0.20277  0.55730  0.48197  1.0000
  C   C284      1.0  0.19556  0.72234  0.34357  1.0000
  C   C285      1.0  0.19618  0.70535  0.42571  1.0000
  C   C286      1.0  0.19817  0.67163  0.42697  1.0000
  C   C287      1.0  0.19869  0.65422  0.50836  1.0000
  C   C288      1.0  0.20039  0.62065  0.50770  1.0000
  H   H146      1.0  0.19774  0.66580  0.56879  1.0000
  H   H147      1.0  0.20061  0.60863  0.56767  1.0000
  H   H148      1.0  0.19501  0.71763  0.48504  1.0000
  C   C289      1.0  0.80730  0.40513  0.42565  1.0000
  C   C290      1.0  0.80602  0.43894  0.42294  1.0000
  H   H149      1.0  0.80614  0.45161  0.48199  1.0000
  C   C291      1.0  0.81329  0.28656  0.34355  1.0000
  C   C292      1.0  0.81269  0.30354  0.42570  1.0000
  C   C293      1.0  0.81070  0.33727  0.42697  1.0000
  C   C294      1.0  0.81019  0.35468  0.50836  1.0000
  C   C295      1.0  0.80850  0.38825  0.50771  1.0000
  H   H150      1.0  0.81114  0.34309  0.56878  1.0000
  H   H151      1.0  0.80828  0.40027  0.56768  1.0000
  H   H152      1.0  0.81386  0.29127  0.48503  1.0000
  C   C296      1.0  0.22893  0.44697  0.34559  1.0000
  C   C297      1.0  0.23581  0.43432  0.42614  1.0000
  N   N87       1.0  0.24826  0.41236  0.42046  1.0000
  C   C298      1.0  0.25479  0.40111  0.34231  1.0000
  C   C299      1.0  0.26764  0.37794  0.34164  1.0000
  C   C300      1.0  0.28646  0.34389  0.42196  1.0000
  N   N88       1.0  0.27415  0.36608  0.41930  1.0000
  H   H153      1.0  0.29072  0.33636  0.48315  1.0000
  C   C301      1.0  0.23036  0.44282  0.51818  1.0000
  H   H154      1.0  0.22050  0.46063  0.51895  1.0000
  H   H155      1.0  0.24080  0.45250  0.55585  1.0000
  H   H156      1.0  0.22588  0.42136  0.55238  1.0000
  C   C302      1.0  0.77995  0.56188  0.34568  1.0000
  C   C303      1.0  0.77309  0.57458  0.42620  1.0000
  N   N89       1.0  0.76064  0.59654  0.42049  1.0000
  C   C304      1.0  0.75410  0.60778  0.34233  1.0000
  C   C305      1.0  0.74126  0.63095  0.34163  1.0000
  C   C306      1.0  0.72244  0.66502  0.42192  1.0000
  N   N90       1.0  0.73476  0.64283  0.41929  1.0000
  H   H157      1.0  0.71818  0.67255  0.48309  1.0000
  C   C307      1.0  0.77854  0.56610  0.51825  1.0000
  H   H158      1.0  0.78838  0.54826  0.51903  1.0000
  H   H159      1.0  0.76809  0.55644  0.55597  1.0000
  H   H160      1.0  0.78303  0.58756  0.55239  1.0000
  C   C308      1.0  0.26061  0.91295  0.42436  1.0000
  C   C309      1.0  0.27354  0.93577  0.42154  1.0000
  H   H161      1.0  0.27851  0.94398  0.48062  1.0000
  C   C310      1.0  0.21559  0.83173  0.34293  1.0000
  C   C311      1.0  0.22199  0.84349  0.42497  1.0000
  C   C312      1.0  0.23484  0.86655  0.42601  1.0000
  C   C313      1.0  0.24142  0.87851  0.50733  1.0000
  C   C314      1.0  0.25418  0.90142  0.50651  1.0000
  H   H162      1.0  0.23700  0.87059  0.56785  1.0000
  H   H163      1.0  0.25874  0.90959  0.56646  1.0000
  H   H164      1.0  0.21721  0.83526  0.48444  1.0000
  C   C315      1.0  0.74826  0.09594  0.42434  1.0000
  C   C316      1.0  0.73533  0.07311  0.42150  1.0000
  H   H165      1.0  0.73037  0.06489  0.48057  1.0000
  C   C317      1.0  0.79327  0.17716  0.34298  1.0000
  C   C318      1.0  0.78688  0.16539  0.42502  1.0000
  C   C319      1.0  0.77403  0.14233  0.42604  1.0000
  C   C320      1.0  0.76745  0.13037  0.50735  1.0000
  C   C321      1.0  0.75469  0.10746  0.50651  1.0000
  H   H166      1.0  0.77187  0.13828  0.56787  1.0000
  H   H167      1.0  0.75013  0.09928  0.56645  1.0000
  H   H168      1.0  0.79166  0.17362  0.48449  1.0000
  C   C322      1.0  0.08823  0.40136  0.34301  1.0000
  C   C323      1.0  0.09718  0.40699  0.42371  1.0000
  N   N91       1.0  0.11307  0.41748  0.41789  1.0000
  C   C324      1.0  0.12119  0.42329  0.33952  1.0000
  C   C325      1.0  0.13759  0.43504  0.33913  1.0000
  C   C326      1.0  0.16153  0.45217  0.42062  1.0000
  N   N92       1.0  0.14588  0.44047  0.41728  1.0000
  H   H169      1.0  0.16690  0.45590  0.48199  1.0000
  C   C327      1.0  0.09049  0.40315  0.51580  1.0000
  H   H170      1.0  0.07780  0.39437  0.51657  1.0000
  H   H171      1.0  0.09078  0.42621  0.55045  1.0000
  H   H172      1.0  0.09811  0.38614  0.55305  1.0000
  C   C328      1.0  0.92068  0.60745  0.34296  1.0000
  C   C329      1.0  0.91172  0.60193  0.42369  1.0000
  N   N93       1.0  0.89582  0.59146  0.41791  1.0000
  C   C330      1.0  0.88771  0.58559  0.33958  1.0000
  C   C331      1.0  0.87131  0.57387  0.33923  1.0000
  C   C332      1.0  0.84735  0.55682  0.42077  1.0000
  N   N94       1.0  0.86300  0.56850  0.41740  1.0000
  H   H173      1.0  0.84199  0.55312  0.48215  1.0000
  C   C333      1.0  0.91842  0.60583  0.51576  1.0000
  H   H174      1.0  0.93112  0.61455  0.51647  1.0000
  H   H175      1.0  0.91810  0.58280  0.55056  1.0000
  H   H176      1.0  0.91081  0.62291  0.55288  1.0000
  C   C334      1.0  0.39619  0.91822  0.42734  1.0000
  C   C335      1.0  0.41270  0.90729  0.42446  1.0000
  H   H177      1.0  0.41911  0.90444  0.48338  1.0000
  C   C336      1.0  0.33886  0.95949  0.34407  1.0000
  C   C337      1.0  0.34705  0.95427  0.42662  1.0000
  C   C338      1.0  0.36331  0.94189  0.42835  1.0000
  C   C339      1.0  0.37183  0.93666  0.50992  1.0000
  C   C340      1.0  0.38812  0.92490  0.50942  1.0000
  H   H178      1.0  0.36630  0.94158  0.57023  1.0000
  H   H179      1.0  0.39409  0.92158  0.56939  1.0000
  H   H180      1.0  0.34119  0.95975  0.48572  1.0000
  C   C341      1.0  0.61268  0.09056  0.42730  1.0000
  C   C342      1.0  0.59617  0.10146  0.42446  1.0000
  H   H181      1.0  0.58976  0.10427  0.48339  1.0000
  C   C343      1.0  0.67002  0.04939  0.34392  1.0000
  C   C344      1.0  0.66182  0.05454  0.42647  1.0000
  C   C345      1.0  0.64556  0.06691  0.42824  1.0000
  C   C346      1.0  0.63704  0.07208  0.50982  1.0000
  C   C347      1.0  0.62074  0.08382  0.50935  1.0000
  H   H182      1.0  0.64257  0.06712  0.57011  1.0000
  H   H183      1.0  0.61478  0.08710  0.56933  1.0000
  H   H184      1.0  0.66769  0.04902  0.48556  1.0000
  C   C348      1.0  0.99275  0.52994  0.42678  1.0000
  C   C349      1.0  0.98126  0.55532  0.42317  1.0000
  H   H185      1.0  0.97692  0.56510  0.48186  1.0000
  C   C350      1.0  0.03312  0.44136  0.34411  1.0000
  C   C351      1.0  0.02744  0.45367  0.42689  1.0000
  C   C352      1.0  0.01594  0.47911  0.42857  1.0000
  C   C353      1.0  0.00996  0.49202  0.51007  1.0000
  C   C354      1.0  0.99846  0.51728  0.50919  1.0000
  H   H186      1.0  0.01392  0.48317  0.57052  1.0000
  H   H187      1.0  0.99429  0.52631  0.56902  1.0000
  H   H188      1.0  0.03161  0.44396  0.48599  1.0000
  C   C355      1.0  0.53305  0.06756  0.34482  1.0000
  C   C356      1.0  0.52677  0.05391  0.42533  1.0000
  N   N95       1.0  0.51572  0.02950  0.41875  1.0000
  C   C357      1.0  0.51018  0.01709  0.33987  1.0000
  C   C358      1.0  0.49863  0.99179  0.33912  1.0000
  C   C359      1.0  0.48181  0.95484  0.42083  1.0000
  N   N96       1.0  0.49286  0.97922  0.41746  1.0000
  H   H189      1.0  0.47811  0.94640  0.48217  1.0000
  C   C360      1.0  0.53117  0.06411  0.51770  1.0000
  H   H190      1.0  0.54011  0.08366  0.51900  1.0000
  H   H191      1.0  0.53647  0.04386  0.55415  1.0000
  H   H192      1.0  0.52006  0.07206  0.55281  1.0000
