data_image0
_chemical_formula_structural       C3N2O4CHC3N2O4CHC3H2CHC3H2CHC3H2CHC3H2CHC3H2CHC3H2CHC3N2O4CHC3N2O4CHC3H2CHC3H2CHC3N2O4CHC3N2O4CHC3H2CHC3H2CHC3H2CHC3H2CHC3N2O4CHC3N2O4CHC3H2CHC3H2CHC3N2O4CHC3N2O4CHC3H2CHC3H2CHC3H2CHC3H2CHC3N2O4CHC3N2O4CHC6H3N3C6H3N3C6H3N3C6H3N3C6H3N3C6H3N3C6H3N3C6H3N3C6H3N3C6H3N3C6H3N3C6H3N3C6H3N3C6H3N3C6H3N3C6H3N3C6H3N3C6H3N3C6H3N3C6H3N3C3H2CHC3H2CHC3N2O4CHC3N2O4CHC3N2O4CHC3N2O4CHC3N2O4CHC3N2O4CHC3H2CHC3H2CHC3N2O4CHC3N2O4CHC3H2CHC3H2CHC3N2O4CHC3N2O4CHC3N2O4CHC3N2O4CHC3H2CHC3H2CHC3N2O4CHC3N2O4CHC3H2CHC3H2CHC3N2O4CHC3N2O4CHC3N2O4CHC3N2O4CHC3H2CHC3H2CH
_chemical_formula_sum              "C360 N120 O120 H180"
_cell_length_a       130.336
_cell_length_b       34.3268
_cell_length_c       14.7556
_cell_angle_alpha    90
_cell_angle_beta     90
_cell_angle_gamma    90

_space_group_name_H-M_alt    "P 1"
_space_group_IT_number       1

loop_
  _space_group_symop_operation_xyz
  'x, y, z'

loop_
  _atom_site_type_symbol
  _atom_site_label
  _atom_site_symmetry_multiplicity
  _atom_site_fract_x
  _atom_site_fract_y
  _atom_site_fract_z
  _atom_site_occupancy
  C   C1        1.0  0.24832  0.27622  0.32189  1.0000
  C   C2        1.0  0.25490  0.26853  0.24667  1.0000
  C   C3        1.0  0.26473  0.25116  0.26073  1.0000
  N   N1        1.0  0.25205  0.27664  0.15575  1.0000
  N   N2        1.0  0.27133  0.24170  0.18742  1.0000
  O   O1        1.0  0.24396  0.25940  0.13259  1.0000
  O   O2        1.0  0.27404  0.27131  0.14340  1.0000
  O   O3        1.0  0.25122  0.31248  0.14023  1.0000
  O   O4        1.0  0.26743  0.21711  0.13458  1.0000
  C   C4        1.0  0.23917  0.29658  0.31215  1.0000
  H   H1        1.0  0.23953  0.32200  0.28008  1.0000
  C   C5        1.0  0.76819  0.74040  0.32197  1.0000
  C   C6        1.0  0.76162  0.74809  0.24671  1.0000
  C   C7        1.0  0.75179  0.76545  0.26073  1.0000
  N   N3        1.0  0.76448  0.73997  0.15581  1.0000
  N   N4        1.0  0.74519  0.77490  0.18738  1.0000
  O   O5        1.0  0.77257  0.75723  0.13268  1.0000
  O   O6        1.0  0.74249  0.74530  0.14333  1.0000
  O   O7        1.0  0.76531  0.70414  0.14030  1.0000
  O   O8        1.0  0.74909  0.79950  0.13457  1.0000
  C   C8        1.0  0.77735  0.72007  0.31227  1.0000
  H   H2        1.0  0.77699  0.69464  0.28023  1.0000
  C   C9        1.0  0.74846  0.24217  0.35035  1.0000
  C   C10       1.0  0.75509  0.25000  0.27679  1.0000
  C   C11       1.0  0.76475  0.26707  0.29041  1.0000
  H   H3        1.0  0.76919  0.27318  0.23483  1.0000
  H   H4        1.0  0.75291  0.24355  0.21170  1.0000
  C   C12       1.0  0.73933  0.22259  0.33236  1.0000
  H   H5        1.0  0.73968  0.19992  0.29031  1.0000
  C   C13       1.0  0.26815  0.77450  0.35037  1.0000
  C   C14       1.0  0.26152  0.76669  0.27681  1.0000
  C   C15       1.0  0.25186  0.74959  0.29044  1.0000
  H   H6        1.0  0.24742  0.74354  0.23486  1.0000
  H   H7        1.0  0.26369  0.77322  0.21175  1.0000
  C   C16       1.0  0.27728  0.79408  0.33240  1.0000
  H   H8        1.0  0.27693  0.81675  0.29034  1.0000
  C   C17       1.0  0.30181  0.04854  0.34529  1.0000
  C   C18       1.0  0.30132  0.02176  0.27287  1.0000
  C   C19       1.0  0.30146  0.98158  0.28900  1.0000
  H   H9        1.0  0.30065  0.96309  0.23487  1.0000
  H   H10       1.0  0.30050  0.03123  0.20731  1.0000
  C   C20       1.0  0.30033  0.08759  0.32489  1.0000
  H   H11       1.0  0.29459  0.09455  0.28331  1.0000
  C   C21       1.0  0.71474  0.96819  0.34517  1.0000
  C   C22       1.0  0.71523  0.99498  0.27274  1.0000
  C   C23       1.0  0.71510  0.03517  0.28889  1.0000
  H   H12       1.0  0.71593  0.05364  0.23479  1.0000
  H   H13       1.0  0.71608  0.98552  0.20721  1.0000
  C   C24       1.0  0.71622  0.92915  0.32477  1.0000
  H   H14       1.0  0.72197  0.92219  0.28326  1.0000
  C   C25       1.0  0.80185  0.54867  0.34527  1.0000
  C   C26       1.0  0.80137  0.52206  0.27251  1.0000
  C   C27       1.0  0.80150  0.48184  0.28817  1.0000
  H   H15       1.0  0.80069  0.46348  0.23382  1.0000
  H   H16       1.0  0.80055  0.53169  0.20708  1.0000
  C   C28       1.0  0.80040  0.58778  0.32546  1.0000
  H   H17       1.0  0.79459  0.59497  0.28488  1.0000
  C   C29       1.0  0.21473  0.46808  0.34516  1.0000
  C   C30       1.0  0.21521  0.49470  0.27242  1.0000
  C   C31       1.0  0.21508  0.53492  0.28813  1.0000
  H   H18       1.0  0.21588  0.55330  0.23380  1.0000
  H   H19       1.0  0.21602  0.48508  0.20697  1.0000
  C   C32       1.0  0.21616  0.42896  0.32531  1.0000
  H   H20       1.0  0.22196  0.42174  0.28469  1.0000
  C   C33       1.0  0.36185  0.26403  0.33172  1.0000
  C   C34       1.0  0.35528  0.25331  0.25877  1.0000
  C   C35       1.0  0.34472  0.24390  0.27569  1.0000
  N   N5        1.0  0.35980  0.25259  0.17128  1.0000
  N   N6        1.0  0.33790  0.23121  0.20680  1.0000
  O   O9        1.0  0.35611  0.27721  0.11761  1.0000
  O   O10       1.0  0.33617  0.25632  0.14691  1.0000
  O   O11       1.0  0.36008  0.21945  0.13557  1.0000
  O   O12       1.0  0.34032  0.19922  0.17172  1.0000
  C   C36       1.0  0.37242  0.26820  0.32012  1.0000
  H   H21       1.0  0.37615  0.24727  0.28706  1.0000
  C   C37       1.0  0.65464  0.75316  0.33130  1.0000
  C   C38       1.0  0.66123  0.76379  0.25836  1.0000
  C   C39       1.0  0.67179  0.77308  0.27531  1.0000
  N   N7        1.0  0.65670  0.76455  0.17085  1.0000
  N   N8        1.0  0.67863  0.78568  0.20643  1.0000
  O   O13       1.0  0.66038  0.73987  0.11722  1.0000
  O   O14       1.0  0.68033  0.76055  0.14655  1.0000
  O   O15       1.0  0.65646  0.79769  0.13511  1.0000
  O   O16       1.0  0.67623  0.81770  0.17134  1.0000
  C   C40       1.0  0.64407  0.74911  0.31969  1.0000
  H   H22       1.0  0.64035  0.77008  0.28664  1.0000
  C   C41       1.0  0.67603  0.24717  0.33772  1.0000
  C   C42       1.0  0.66950  0.26016  0.26743  1.0000
  C   C43       1.0  0.65923  0.26991  0.28418  1.0000
  H   H23       1.0  0.65468  0.27724  0.23014  1.0000
  H   H24       1.0  0.67205  0.26109  0.20168  1.0000
  C   C44       1.0  0.68564  0.23247  0.31305  1.0000
  H   H25       1.0  0.68629  0.21974  0.25255  1.0000
  C   C45       1.0  0.34059  0.76988  0.33730  1.0000
  C   C46       1.0  0.34713  0.75694  0.26700  1.0000
  C   C47       1.0  0.35741  0.74731  0.28373  1.0000
  H   H26       1.0  0.36196  0.73995  0.22971  1.0000
  H   H27       1.0  0.34457  0.75591  0.20129  1.0000
  C   C48       1.0  0.33096  0.78442  0.31270  1.0000
  H   H28       1.0  0.33027  0.79688  0.25194  1.0000
  C   C49       1.0  0.86187  0.76407  0.33263  1.0000
  C   C50       1.0  0.85528  0.75367  0.25960  1.0000
  C   C51       1.0  0.84472  0.74423  0.27657  1.0000
  N   N9        1.0  0.85977  0.75329  0.17198  1.0000
  N   N10       1.0  0.83788  0.73184  0.20759  1.0000
  O   O17       1.0  0.85606  0.77815  0.11896  1.0000
  O   O18       1.0  0.83613  0.75718  0.14830  1.0000
  O   O19       1.0  0.86003  0.72030  0.13553  1.0000
  O   O20       1.0  0.84028  0.69997  0.17177  1.0000
  C   C52       1.0  0.87244  0.76826  0.32085  1.0000
  H   H29       1.0  0.87616  0.74737  0.28755  1.0000
  C   C53       1.0  0.15462  0.25313  0.33212  1.0000
  C   C54       1.0  0.16123  0.26344  0.25910  1.0000
  C   C55       1.0  0.17179  0.27277  0.27611  1.0000
  N   N11       1.0  0.15673  0.26387  0.17147  1.0000
  N   N12       1.0  0.17865  0.28508  0.20714  1.0000
  O   O21       1.0  0.16043  0.23897  0.11847  1.0000
  O   O22       1.0  0.18037  0.25972  0.14786  1.0000
  O   O23       1.0  0.15651  0.29686  0.13501  1.0000
  O   O24       1.0  0.17627  0.31698  0.17132  1.0000
  C   C56       1.0  0.14405  0.24907  0.32033  1.0000
  H   H30       1.0  0.14034  0.26999  0.28706  1.0000
  C   C57       1.0  0.17603  0.74716  0.33679  1.0000
  C   C58       1.0  0.16947  0.75985  0.26639  1.0000
  C   C59       1.0  0.15920  0.76963  0.28320  1.0000
  H   H31       1.0  0.15463  0.77675  0.22913  1.0000
  H   H32       1.0  0.17200  0.76055  0.20057  1.0000
  C   C60       1.0  0.18563  0.73243  0.31218  1.0000
  H   H33       1.0  0.18625  0.71924  0.25220  1.0000
  C   C61       1.0  0.84061  0.26990  0.33635  1.0000
  C   C62       1.0  0.84717  0.25727  0.26594  1.0000
  C   C63       1.0  0.85745  0.24761  0.28272  1.0000
  H   H34       1.0  0.86202  0.24047  0.22867  1.0000
  H   H35       1.0  0.84464  0.25648  0.20014  1.0000
  C   C64       1.0  0.83098  0.28447  0.31181  1.0000
  H   H36       1.0  0.83033  0.29740  0.25155  1.0000
  C   C65       1.0  0.08139  0.38414  0.33595  1.0000
  C   C66       1.0  0.08593  0.36139  0.26660  1.0000
  C   C67       1.0  0.09178  0.32787  0.28578  1.0000
  H   H37       1.0  0.09502  0.31313  0.23256  1.0000
  H   H38       1.0  0.08481  0.36859  0.19992  1.0000
  C   C68       1.0  0.07623  0.41916  0.31143  1.0000
  H   H39       1.0  0.07806  0.43155  0.25034  1.0000
  C   C69       1.0  0.93509  0.63334  0.33755  1.0000
  C   C70       1.0  0.93057  0.65616  0.26823  1.0000
  C   C71       1.0  0.92476  0.68976  0.28739  1.0000
  H   H40       1.0  0.92151  0.70446  0.23418  1.0000
  H   H41       1.0  0.93172  0.64903  0.20153  1.0000
  C   C72       1.0  0.94024  0.59830  0.31300  1.0000
  H   H42       1.0  0.93840  0.58593  0.25190  1.0000
  C   C73       1.0  0.92043  0.32401  0.31167  1.0000
  C   C74       1.0  0.91851  0.36499  0.30573  1.0000
  C   C75       1.0  0.92676  0.39272  0.30710  1.0000
  N   N13       1.0  0.90810  0.37679  0.29724  1.0000
  N   N14       1.0  0.92500  0.43339  0.30051  1.0000
  O   O25       1.0  0.90585  0.39218  0.22274  1.0000
  O   O26       1.0  0.92022  0.44796  0.36601  1.0000
  O   O27       1.0  0.90465  0.39600  0.36285  1.0000
  O   O28       1.0  0.92138  0.44440  0.22605  1.0000
  C   C76       1.0  0.91227  0.29630  0.31340  1.0000
  H   H43       1.0  0.90504  0.30740  0.31363  1.0000
  C   C77       1.0  0.09621  0.69349  0.31269  1.0000
  C   C78       1.0  0.09812  0.65253  0.30576  1.0000
  C   C79       1.0  0.08986  0.62483  0.30765  1.0000
  N   N15       1.0  0.10851  0.64072  0.29575  1.0000
  N   N16       1.0  0.09159  0.58418  0.30012  1.0000
  O   O29       1.0  0.11063  0.62557  0.22069  1.0000
  O   O30       1.0  0.09648  0.56937  0.36477  1.0000
  O   O31       1.0  0.11205  0.62126  0.36055  1.0000
  O   O32       1.0  0.09509  0.57339  0.22503  1.0000
  C   C80       1.0  0.10438  0.72116  0.31397  1.0000
  H   H44       1.0  0.11161  0.71005  0.31330  1.0000
  C   C81       1.0  0.58139  0.88415  0.33580  1.0000
  C   C82       1.0  0.58593  0.86140  0.26641  1.0000
  C   C83       1.0  0.59178  0.82789  0.28555  1.0000
  H   H45       1.0  0.59501  0.81317  0.23230  1.0000
  H   H46       1.0  0.58480  0.86861  0.19973  1.0000
  C   C84       1.0  0.57622  0.91916  0.31132  1.0000
  H   H47       1.0  0.57805  0.93156  0.25023  1.0000
  C   C85       1.0  0.43509  0.13333  0.33738  1.0000
  C   C86       1.0  0.43057  0.15614  0.26803  1.0000
  C   C87       1.0  0.42476  0.18975  0.28715  1.0000
  H   H48       1.0  0.42151  0.20443  0.23390  1.0000
  H   H49       1.0  0.43173  0.14901  0.20134  1.0000
  C   C88       1.0  0.44024  0.09829  0.31288  1.0000
  H   H50       1.0  0.43840  0.08592  0.25178  1.0000
  C   C89       1.0  0.42043  0.82399  0.31181  1.0000
  C   C90       1.0  0.41850  0.86496  0.30582  1.0000
  C   C91       1.0  0.42676  0.89270  0.30716  1.0000
  N   N17       1.0  0.40809  0.87676  0.29732  1.0000
  N   N18       1.0  0.42500  0.93337  0.30052  1.0000
  O   O33       1.0  0.40584  0.89213  0.22280  1.0000
  O   O34       1.0  0.42021  0.94794  0.36601  1.0000
  O   O35       1.0  0.40465  0.89598  0.36290  1.0000
  O   O36       1.0  0.42137  0.94436  0.22606  1.0000
  C   C92       1.0  0.41227  0.79627  0.31360  1.0000
  H   H51       1.0  0.40504  0.80738  0.31385  1.0000
  C   C93       1.0  0.59621  0.19349  0.31287  1.0000
  C   C94       1.0  0.59811  0.15253  0.30589  1.0000
  C   C95       1.0  0.58985  0.12483  0.30774  1.0000
  N   N19       1.0  0.60850  0.14072  0.29587  1.0000
  N   N20       1.0  0.59158  0.08418  0.30016  1.0000
  O   O37       1.0  0.61063  0.12558  0.22079  1.0000
  O   O38       1.0  0.59647  0.06936  0.36479  1.0000
  O   O39       1.0  0.61204  0.12124  0.36064  1.0000
  O   O40       1.0  0.59508  0.07340  0.22506  1.0000
  C   C96       1.0  0.60438  0.22115  0.31421  1.0000
  H   H52       1.0  0.61161  0.21004  0.31356  1.0000
  C   C97       1.0  0.11609  0.04965  0.31765  1.0000
  C   C98       1.0  0.11724  0.02090  0.24961  1.0000
  C   C99       1.0  0.11623  0.98088  0.26856  1.0000
  H   H53       1.0  0.11739  0.96148  0.21677  1.0000
  H   H54       1.0  0.11865  0.02897  0.18387  1.0000
  C   C100      1.0  0.11809  0.08918  0.29496  1.0000
  H   H55       1.0  0.12273  0.09460  0.24031  1.0000
  C   C101      1.0  0.90045  0.96771  0.31773  1.0000
  C   C102      1.0  0.89932  0.99644  0.24959  1.0000
  C   C103      1.0  0.90041  0.03645  0.26824  1.0000
  H   H56       1.0  0.89923  0.05582  0.21644  1.0000
  H   H57       1.0  0.89790  0.98832  0.18391  1.0000
  C   C104      1.0  0.89840  0.92819  0.29528  1.0000
  H   H58       1.0  0.89376  0.92277  0.24065  1.0000
  C   C105      1.0  0.61608  0.54965  0.31758  1.0000
  C   C106      1.0  0.61725  0.52086  0.24964  1.0000
  C   C107      1.0  0.61621  0.48085  0.26860  1.0000
  H   H59       1.0  0.61741  0.46147  0.21683  1.0000
  H   H60       1.0  0.61867  0.52891  0.18391  1.0000
  C   C108      1.0  0.61809  0.58918  0.29483  1.0000
  H   H61       1.0  0.62275  0.59454  0.24028  1.0000
  C   C109      1.0  0.40043  0.46772  0.31770  1.0000
  C   C110      1.0  0.39931  0.49646  0.24959  1.0000
  C   C111      1.0  0.40036  0.53647  0.26842  1.0000
  H   H62       1.0  0.39923  0.55587  0.21658  1.0000
  H   H63       1.0  0.39791  0.48837  0.18386  1.0000
  C   C112      1.0  0.39840  0.42819  0.29511  1.0000
  H   H64       1.0  0.39377  0.42278  0.24042  1.0000
  C   C113      1.0  0.01931  0.50229  0.35313  1.0000
  C   C114      1.0  0.01266  0.49480  0.27829  1.0000
  C   C115      1.0  0.00177  0.50103  0.28574  1.0000
  N   N21       1.0  0.01749  0.48180  0.19752  1.0000
  N   N22       1.0  0.99485  0.49531  0.21275  1.0000
  O   O41       1.0  0.01677  0.50520  0.13253  1.0000
  O   O42       1.0  0.99433  0.46070  0.18579  1.0000
  O   O43       1.0  0.01493  0.44808  0.17382  1.0000
  O   O44       1.0  0.99623  0.51812  0.14748  1.0000
  C   C116      1.0  0.02979  0.49219  0.35061  1.0000
  H   H65       1.0  0.03139  0.46505  0.33197  1.0000
  C   C117      1.0  0.51931  0.00229  0.35316  1.0000
  C   C118      1.0  0.51265  0.99485  0.27827  1.0000
  C   C119      1.0  0.50176  0.00108  0.28571  1.0000
  N   N23       1.0  0.51749  0.98192  0.19746  1.0000
  N   N24       1.0  0.49485  0.99542  0.21266  1.0000
  O   O45       1.0  0.51677  0.00537  0.13256  1.0000
  O   O46       1.0  0.49434  0.96084  0.18553  1.0000
  O   O47       1.0  0.51494  0.94822  0.17362  1.0000
  O   O48       1.0  0.49623  0.01830  0.14752  1.0000
  C   C120      1.0  0.52978  0.99220  0.35065  1.0000
  H   H66       1.0  0.53138  0.96504  0.33200  1.0000
  C   C121      1.0  0.31401  0.21660  0.34501  1.0000
  C   C122      1.0  0.30434  0.23514  0.33671  1.0000
  C   C123      1.0  0.29508  0.21359  0.33961  1.0000
  C   C124      1.0  0.29572  0.17253  0.34506  1.0000
  C   C125      1.0  0.30525  0.15308  0.34989  1.0000
  C   C126      1.0  0.31430  0.17545  0.35161  1.0000
  H   H67       1.0  0.28912  0.15642  0.34535  1.0000
  H   H68       1.0  0.32123  0.16147  0.35586  1.0000
  H   H69       1.0  0.30402  0.26485  0.33107  1.0000
  N   N25       1.0  0.32262  0.23792  0.34390  1.0000
  N   N26       1.0  0.28600  0.23166  0.33153  1.0000
  N   N27       1.0  0.30597  0.11462  0.35889  1.0000
  C   C127      1.0  0.70251  0.80019  0.34475  1.0000
  C   C128      1.0  0.71217  0.78161  0.33643  1.0000
  C   C129      1.0  0.72144  0.80312  0.33939  1.0000
  C   C130      1.0  0.72082  0.84418  0.34488  1.0000
  C   C131      1.0  0.71129  0.86367  0.34968  1.0000
  C   C132      1.0  0.70223  0.84134  0.35131  1.0000
  H   H70       1.0  0.72742  0.86026  0.34520  1.0000
  H   H71       1.0  0.69531  0.85535  0.35559  1.0000
  H   H72       1.0  0.71248  0.75190  0.33089  1.0000
  N   N28       1.0  0.69389  0.77890  0.34363  1.0000
  N   N29       1.0  0.73051  0.78501  0.33139  1.0000
  N   N30       1.0  0.71057  0.90213  0.35868  1.0000
  C   C133      1.0  0.70264  0.21722  0.35642  1.0000
  C   C134      1.0  0.71234  0.23560  0.36353  1.0000
  C   C135      1.0  0.72155  0.21382  0.36072  1.0000
  C   C136      1.0  0.72086  0.17275  0.35642  1.0000
  C   C137      1.0  0.71130  0.15354  0.35269  1.0000
  C   C138      1.0  0.70227  0.17605  0.35102  1.0000
  H   H73       1.0  0.72742  0.15642  0.35701  1.0000
  H   H74       1.0  0.69532  0.16218  0.34833  1.0000
  H   H75       1.0  0.71270  0.26533  0.36855  1.0000
  N   N31       1.0  0.69409  0.23878  0.35793  1.0000
  N   N32       1.0  0.73064  0.23174  0.36844  1.0000
  N   N33       1.0  0.71055  0.11497  0.34779  1.0000
  C   C139      1.0  0.31397  0.79956  0.35635  1.0000
  C   C140      1.0  0.30428  0.78115  0.36356  1.0000
  C   C141      1.0  0.29506  0.80291  0.36076  1.0000
  C   C142      1.0  0.29574  0.84397  0.35647  1.0000
  C   C143      1.0  0.30530  0.86321  0.35272  1.0000
  C   C144      1.0  0.31433  0.84074  0.35103  1.0000
  H   H76       1.0  0.28917  0.86028  0.35710  1.0000
  H   H77       1.0  0.32128  0.85463  0.34824  1.0000
  H   H78       1.0  0.30392  0.75142  0.36845  1.0000
  N   N34       1.0  0.32253  0.77803  0.35776  1.0000
  N   N35       1.0  0.28598  0.78495  0.36848  1.0000
  N   N36       1.0  0.30604  0.90179  0.34783  1.0000
  C   C145      1.0  0.81406  0.71668  0.34598  1.0000
  C   C146      1.0  0.80435  0.73517  0.34170  1.0000
  C   C147      1.0  0.79512  0.71342  0.34362  1.0000
  C   C148      1.0  0.79583  0.67241  0.35086  1.0000
  C   C149      1.0  0.80538  0.65304  0.35077  1.0000
  C   C150      1.0  0.81442  0.67547  0.34946  1.0000
  H   H79       1.0  0.78928  0.65629  0.35788  1.0000
  H   H80       1.0  0.82137  0.66156  0.35116  1.0000
  H   H81       1.0  0.80400  0.76495  0.33881  1.0000
  N   N37       1.0  0.82264  0.73812  0.34516  1.0000
  N   N38       1.0  0.78602  0.73171  0.34476  1.0000
  N   N39       1.0  0.80614  0.61458  0.35931  1.0000
  C   C151      1.0  0.20246  0.30014  0.34569  1.0000
  C   C152      1.0  0.21216  0.28159  0.34144  1.0000
  C   C153      1.0  0.22140  0.30330  0.34346  1.0000
  C   C154      1.0  0.22071  0.34431  0.35069  1.0000
  C   C155      1.0  0.21116  0.36373  0.35059  1.0000
  C   C156      1.0  0.20211  0.34135  0.34919  1.0000
  H   H82       1.0  0.22726  0.36040  0.35780  1.0000
  H   H83       1.0  0.19517  0.35529  0.35087  1.0000
  H   H84       1.0  0.21251  0.25181  0.33856  1.0000
  N   N40       1.0  0.19386  0.27874  0.34481  1.0000
  N   N41       1.0  0.23050  0.28497  0.34464  1.0000
  N   N42       1.0  0.21042  0.40219  0.35916  1.0000
  C   C157      1.0  0.20261  0.71716  0.35549  1.0000
  C   C158      1.0  0.21235  0.73543  0.35864  1.0000
  C   C159      1.0  0.22153  0.71342  0.35669  1.0000
  C   C160      1.0  0.22076  0.67240  0.35048  1.0000
  C   C161      1.0  0.21117  0.65332  0.35153  1.0000
  C   C162      1.0  0.20217  0.67595  0.35300  1.0000
  H   H85       1.0  0.22727  0.65600  0.34441  1.0000
  H   H86       1.0  0.19519  0.66220  0.35279  1.0000
  H   H87       1.0  0.21276  0.76521  0.36108  1.0000
  N   N43       1.0  0.19409  0.73887  0.35683  1.0000
  N   N44       1.0  0.23064  0.73152  0.35543  1.0000
  N   N45       1.0  0.21040  0.61475  0.34691  1.0000
  C   C163      1.0  0.81401  0.29962  0.35538  1.0000
  C   C164      1.0  0.80428  0.28130  0.35857  1.0000
  C   C165      1.0  0.79509  0.30327  0.35665  1.0000
  C   C166      1.0  0.79585  0.34429  0.35050  1.0000
  C   C167      1.0  0.80543  0.36342  0.35153  1.0000
  C   C168      1.0  0.81444  0.34083  0.35296  1.0000
  H   H88       1.0  0.78933  0.36067  0.34445  1.0000
  H   H89       1.0  0.82141  0.35461  0.35273  1.0000
  H   H90       1.0  0.80387  0.25152  0.36093  1.0000
  N   N46       1.0  0.82254  0.27796  0.35663  1.0000
  N   N47       1.0  0.78598  0.28513  0.35540  1.0000
  N   N48       1.0  0.80619  0.40199  0.34696  1.0000
  C   C169      1.0  0.12905  0.21057  0.34347  1.0000
  C   C170      1.0  0.12628  0.17124  0.32920  1.0000
  C   C171      1.0  0.11590  0.15919  0.33007  1.0000
  C   C172      1.0  0.10822  0.18822  0.33860  1.0000
  C   C173      1.0  0.11067  0.22817  0.35001  1.0000
  C   C174      1.0  0.12117  0.23847  0.35681  1.0000
  H   H91       1.0  0.10067  0.18001  0.33742  1.0000
  H   H92       1.0  0.12312  0.26706  0.36587  1.0000
  H   H93       1.0  0.13196  0.15069  0.32484  1.0000
  N   N49       1.0  0.13905  0.21909  0.34864  1.0000
  N   N50       1.0  0.11321  0.12073  0.33045  1.0000
  N   N51       1.0  0.10295  0.25513  0.35115  1.0000
  C   C175      1.0  0.88742  0.80680  0.34407  1.0000
  C   C176      1.0  0.89019  0.84611  0.32954  1.0000
  C   C177      1.0  0.90058  0.85818  0.33069  1.0000
  C   C178      1.0  0.90826  0.82917  0.33942  1.0000
  C   C179      1.0  0.90581  0.78923  0.35101  1.0000
  C   C180      1.0  0.89530  0.77892  0.35770  1.0000
  H   H94       1.0  0.91580  0.83738  0.33836  1.0000
  H   H95       1.0  0.89335  0.75035  0.36705  1.0000
  H   H96       1.0  0.88452  0.86667  0.32525  1.0000
  N   N52       1.0  0.87743  0.79825  0.34927  1.0000
  N   N53       1.0  0.90327  0.89663  0.33088  1.0000
  N   N54       1.0  0.91353  0.76230  0.35246  1.0000
  C   C181      1.0  0.88723  0.20896  0.34974  1.0000
  C   C182      1.0  0.89037  0.16969  0.35215  1.0000
  C   C183      1.0  0.90066  0.15877  0.33485  1.0000
  C   C184      1.0  0.90792  0.18874  0.31788  1.0000
  C   C185      1.0  0.90529  0.22886  0.32245  1.0000
  C   C186      1.0  0.89477  0.23800  0.33572  1.0000
  H   H97       1.0  0.91542  0.18118  0.30674  1.0000
  H   H98       1.0  0.89240  0.26626  0.33403  1.0000
  H   H99       1.0  0.88489  0.14851  0.35923  1.0000
  N   N55       1.0  0.87717  0.21667  0.35087  1.0000
  N   N56       1.0  0.90344  0.12042  0.33006  1.0000
  N   N57       1.0  0.91287  0.25655  0.31503  1.0000
  C   C187      1.0  0.12943  0.80844  0.35053  1.0000
  C   C188      1.0  0.12629  0.84772  0.35304  1.0000
  C   C189      1.0  0.11600  0.85864  0.33565  1.0000
  C   C190      1.0  0.10873  0.82868  0.31880  1.0000
  C   C191      1.0  0.11136  0.78857  0.32336  1.0000
  C   C192      1.0  0.12189  0.77941  0.33646  1.0000
  H   H100      1.0  0.10124  0.83626  0.30779  1.0000
  H   H101      1.0  0.12425  0.75114  0.33478  1.0000
  H   H102      1.0  0.13178  0.86889  0.35980  1.0000
  N   N58       1.0  0.13948  0.80071  0.35149  1.0000
  N   N59       1.0  0.11321  0.89698  0.33076  1.0000
  N   N60       1.0  0.10379  0.76089  0.31606  1.0000
  C   C193      1.0  0.62907  0.71060  0.34291  1.0000
  C   C194      1.0  0.62629  0.67127  0.32876  1.0000
  C   C195      1.0  0.61591  0.65921  0.32979  1.0000
  C   C196      1.0  0.60823  0.68825  0.33836  1.0000
  C   C197      1.0  0.61068  0.72820  0.34967  1.0000
  C   C198      1.0  0.62119  0.73851  0.35631  1.0000
  H   H103      1.0  0.60068  0.68004  0.33729  1.0000
  H   H104      1.0  0.62314  0.76710  0.36529  1.0000
  H   H105      1.0  0.63196  0.65071  0.32436  1.0000
  N   N61       1.0  0.63907  0.71912  0.34791  1.0000
  N   N62       1.0  0.61321  0.62076  0.33026  1.0000
  N   N63       1.0  0.60296  0.75515  0.35088  1.0000
  C   C199      1.0  0.38741  0.30677  0.34342  1.0000
  C   C200      1.0  0.39018  0.34609  0.32902  1.0000
  C   C201      1.0  0.40056  0.35816  0.33040  1.0000
  C   C202      1.0  0.40824  0.32914  0.33921  1.0000
  C   C203      1.0  0.40579  0.28920  0.35066  1.0000
  C   C204      1.0  0.39529  0.27888  0.35713  1.0000
  H   H106      1.0  0.41579  0.33737  0.33831  1.0000
  H   H107      1.0  0.39333  0.25032  0.36639  1.0000
  H   H108      1.0  0.38451  0.36665  0.32468  1.0000
  N   N64       1.0  0.37740  0.29823  0.34843  1.0000
  N   N65       1.0  0.40326  0.39661  0.33075  1.0000
  N   N66       1.0  0.41352  0.26227  0.35218  1.0000
  C   C205      1.0  0.38723  0.70896  0.35033  1.0000
  C   C206      1.0  0.39036  0.66969  0.35266  1.0000
  C   C207      1.0  0.40065  0.65875  0.33519  1.0000
  C   C208      1.0  0.40791  0.68872  0.31812  1.0000
  C   C209      1.0  0.40528  0.72885  0.32276  1.0000
  C   C210      1.0  0.39476  0.73799  0.33621  1.0000
  H   H109      1.0  0.41540  0.68115  0.30685  1.0000
  H   H110      1.0  0.39239  0.76626  0.33458  1.0000
  H   H111      1.0  0.38488  0.64852  0.35982  1.0000
  N   N67       1.0  0.37717  0.71668  0.35163  1.0000
  N   N68       1.0  0.40343  0.62040  0.33030  1.0000
  N   N69       1.0  0.41286  0.75653  0.31524  1.0000
  C   C211      1.0  0.62942  0.30841  0.35107  1.0000
  C   C212      1.0  0.62629  0.34770  0.35347  1.0000
  C   C213      1.0  0.61601  0.35863  0.33593  1.0000
  C   C214      1.0  0.60873  0.32868  0.31904  1.0000
  C   C215      1.0  0.61136  0.28856  0.32368  1.0000
  C   C216      1.0  0.62188  0.27940  0.33694  1.0000
  H   H112      1.0  0.60124  0.33625  0.30792  1.0000
  H   H113      1.0  0.62425  0.25112  0.33534  1.0000
  H   H114      1.0  0.63177  0.36887  0.36027  1.0000
  N   N70       1.0  0.63948  0.30068  0.35220  1.0000
  N   N71       1.0  0.61322  0.39697  0.33094  1.0000
  N   N72       1.0  0.60379  0.26089  0.31630  1.0000
  C   C217      1.0  0.06336  0.47027  0.34595  1.0000
  C   C218      1.0  0.05276  0.47469  0.36470  1.0000
  C   C219      1.0  0.04768  0.51124  0.35675  1.0000
  C   C220      1.0  0.05388  0.54463  0.34157  1.0000
  C   C221      1.0  0.06463  0.54176  0.32772  1.0000
  C   C222      1.0  0.06907  0.50416  0.32464  1.0000
  H   H115      1.0  0.05050  0.57152  0.34021  1.0000
  H   H116      1.0  0.07684  0.50176  0.31597  1.0000
  H   H117      1.0  0.04856  0.45031  0.37920  1.0000
  N   N73       1.0  0.06781  0.43431  0.35338  1.0000
  N   N74       1.0  0.03736  0.51608  0.36245  1.0000
  N   N75       1.0  0.07121  0.57251  0.32046  1.0000
  C   C223      1.0  0.95318  0.54739  0.34657  1.0000
  C   C224      1.0  0.96383  0.54314  0.36351  1.0000
  C   C225      1.0  0.96893  0.50672  0.35389  1.0000
  C   C226      1.0  0.96276  0.47332  0.33734  1.0000
  C   C227      1.0  0.95196  0.47597  0.32630  1.0000
  C   C228      1.0  0.94745  0.51346  0.32576  1.0000
  H   H118      1.0  0.96619  0.44657  0.33353  1.0000
  H   H119      1.0  0.93967  0.51578  0.31837  1.0000
  H   H120      1.0  0.96805  0.56771  0.37525  1.0000
  N   N76       1.0  0.94871  0.58331  0.35446  1.0000
  N   N77       1.0  0.97926  0.50239  0.35399  1.0000
  N   N78       1.0  0.94541  0.44512  0.31916  1.0000
  C   C229      1.0  0.56335  0.97027  0.34591  1.0000
  C   C230      1.0  0.55275  0.97468  0.36467  1.0000
  C   C231      1.0  0.54767  0.01123  0.35676  1.0000
  C   C232      1.0  0.55387  0.04463  0.34161  1.0000
  C   C233      1.0  0.56462  0.04175  0.32774  1.0000
  C   C234      1.0  0.56907  0.00416  0.32462  1.0000
  H   H121      1.0  0.55049  0.07152  0.34027  1.0000
  H   H122      1.0  0.57683  0.00177  0.31594  1.0000
  H   H123      1.0  0.54855  0.95030  0.37915  1.0000
  N   N79       1.0  0.56781  0.93431  0.35331  1.0000
  N   N80       1.0  0.53736  0.01607  0.36246  1.0000
  N   N81       1.0  0.57120  0.07251  0.32050  1.0000
  C   C235      1.0  0.45317  0.04738  0.34651  1.0000
  C   C236      1.0  0.46382  0.04313  0.36348  1.0000
  C   C237      1.0  0.46892  0.00670  0.35389  1.0000
  C   C238      1.0  0.46276  0.97331  0.33736  1.0000
  C   C239      1.0  0.45196  0.97595  0.32630  1.0000
  C   C240      1.0  0.44745  0.01345  0.32573  1.0000
  H   H124      1.0  0.46619  0.94656  0.33357  1.0000
  H   H125      1.0  0.43966  0.01576  0.31831  1.0000
  H   H126      1.0  0.46805  0.06770  0.37521  1.0000
  N   N82       1.0  0.44871  0.08330  0.35437  1.0000
  N   N83       1.0  0.47926  0.00236  0.35401  1.0000
  N   N84       1.0  0.44540  0.94511  0.31917  1.0000
  C   C241      1.0  0.26814  0.24238  0.35005  1.0000
  C   C242      1.0  0.26147  0.24999  0.42350  1.0000
  C   C243      1.0  0.25178  0.26684  0.40985  1.0000
  H   H127      1.0  0.24732  0.27276  0.46542  1.0000
  H   H128      1.0  0.26365  0.24350  0.48858  1.0000
  C   C244      1.0  0.27730  0.22289  0.36814  1.0000
  H   H129      1.0  0.27696  0.20048  0.41093  1.0000
  C   C245      1.0  0.74837  0.77421  0.35003  1.0000
  C   C246      1.0  0.75504  0.76662  0.42350  1.0000
  C   C247      1.0  0.76473  0.74980  0.40990  1.0000
  H   H130      1.0  0.76918  0.74386  0.46550  1.0000
  H   H131      1.0  0.75286  0.77311  0.48857  1.0000
  C   C248      1.0  0.73921  0.79373  0.36806  1.0000
  H   H132      1.0  0.73955  0.81615  0.41084  1.0000
  C   C249      1.0  0.76820  0.27642  0.37842  1.0000
  C   C250      1.0  0.76167  0.26845  0.45376  1.0000
  C   C251      1.0  0.75187  0.25088  0.43971  1.0000
  N   N85       1.0  0.76453  0.27647  0.54469  1.0000
  N   N86       1.0  0.74529  0.24117  0.51305  1.0000
  O   O49       1.0  0.77265  0.25934  0.56752  1.0000
  O   O50       1.0  0.74255  0.27065  0.55734  1.0000
  O   O51       1.0  0.76532  0.31230  0.56051  1.0000
  O   O52       1.0  0.74924  0.21659  0.56565  1.0000
  C   C252      1.0  0.77733  0.29681  0.38814  1.0000
  H   H133      1.0  0.77699  0.32215  0.42059  1.0000
  C   C253      1.0  0.24842  0.74015  0.37843  1.0000
  C   C254      1.0  0.25496  0.74806  0.45375  1.0000
  C   C255      1.0  0.26476  0.76567  0.43971  1.0000
  N   N87       1.0  0.25211  0.73996  0.54467  1.0000
  N   N88       1.0  0.27134  0.77533  0.51305  1.0000
  O   O53       1.0  0.24399  0.75707  0.56767  1.0000
  O   O54       1.0  0.27409  0.74581  0.55716  1.0000
  O   O55       1.0  0.25133  0.70412  0.56033  1.0000
  O   O56       1.0  0.26740  0.79984  0.56582  1.0000
  C   C256      1.0  0.23929  0.71981  0.38818  1.0000
  H   H134      1.0  0.23962  0.69446  0.42061  1.0000
  C   C257      1.0  0.30211  0.96696  0.37819  1.0000
  C   C258      1.0  0.30283  0.99335  0.45224  1.0000
  C   C259      1.0  0.30264  0.03443  0.43580  1.0000
  N   N89       1.0  0.30366  0.97666  0.54002  1.0000
  N   N90       1.0  0.30282  0.06253  0.50634  1.0000
  O   O57       1.0  0.31200  0.98393  0.57892  1.0000
  O   O58       1.0  0.31095  0.06249  0.55189  1.0000
  O   O59       1.0  0.29620  0.98380  0.59112  1.0000
  O   O60       1.0  0.29510  0.06153  0.55712  1.0000
  C   C260      1.0  0.30085  0.92735  0.39216  1.0000
  H   H135      1.0  0.29569  0.91886  0.43786  1.0000
  C   C261      1.0  0.71446  0.04977  0.37809  1.0000
  C   C262      1.0  0.71374  0.02339  0.45213  1.0000
  C   C263      1.0  0.71392  0.98231  0.43568  1.0000
  N   N91       1.0  0.71291  0.04008  0.53992  1.0000
  N   N92       1.0  0.71374  0.95420  0.50621  1.0000
  O   O61       1.0  0.70457  0.03283  0.57885  1.0000
  O   O62       1.0  0.70561  0.95426  0.55178  1.0000
  O   O63       1.0  0.72037  0.03291  0.59099  1.0000
  O   O64       1.0  0.72145  0.95518  0.55697  1.0000
  C   C264      1.0  0.71573  0.08938  0.39206  1.0000
  H   H136      1.0  0.72090  0.09785  0.43773  1.0000
  C   C265      1.0  0.80213  0.46703  0.37719  1.0000
  C   C266      1.0  0.80282  0.49324  0.45160  1.0000
  C   C267      1.0  0.80265  0.53436  0.43562  1.0000
  N   N93       1.0  0.80359  0.47636  0.53921  1.0000
  N   N94       1.0  0.80282  0.56233  0.50644  1.0000
  O   O65       1.0  0.81192  0.48357  0.57853  1.0000
  O   O66       1.0  0.81094  0.56219  0.55215  1.0000
  O   O67       1.0  0.79611  0.48349  0.59007  1.0000
  O   O68       1.0  0.79509  0.56132  0.55702  1.0000
  C   C268      1.0  0.80086  0.42739  0.39050  1.0000
  H   H137      1.0  0.79558  0.41875  0.43493  1.0000
  C   C269      1.0  0.21446  0.54970  0.37718  1.0000
  C   C270      1.0  0.21376  0.52348  0.45156  1.0000
  C   C271      1.0  0.21392  0.48237  0.43553  1.0000
  N   N95       1.0  0.21297  0.54034  0.53919  1.0000
  N   N96       1.0  0.21375  0.45437  0.50632  1.0000
  O   O69       1.0  0.20465  0.53312  0.57846  1.0000
  O   O70       1.0  0.20564  0.45450  0.55199  1.0000
  O   O71       1.0  0.22045  0.53319  0.59008  1.0000
  O   O72       1.0  0.22148  0.45537  0.55693  1.0000
  C   C272      1.0  0.21571  0.58935  0.39058  1.0000
  H   H138      1.0  0.22099  0.59798  0.43511  1.0000
  C   C273      1.0  0.34075  0.24552  0.36565  1.0000
  C   C274      1.0  0.34739  0.25731  0.43635  1.0000
  C   C275      1.0  0.35772  0.26636  0.41989  1.0000
  H   H139      1.0  0.36231  0.27311  0.47404  1.0000
  H   H140      1.0  0.34485  0.25809  0.50213  1.0000
  C   C276      1.0  0.33101  0.23176  0.38995  1.0000
  H   H141      1.0  0.33027  0.21885  0.45013  1.0000
  C   C277      1.0  0.67576  0.77141  0.36528  1.0000
  C   C278      1.0  0.66911  0.75970  0.43596  1.0000
  C   C279      1.0  0.65877  0.75076  0.41947  1.0000
  H   H142      1.0  0.65416  0.74416  0.47364  1.0000
  H   H143      1.0  0.67164  0.75898  0.50177  1.0000
  C   C280      1.0  0.68550  0.78512  0.38961  1.0000
  H   H144      1.0  0.68625  0.79803  0.44981  1.0000
  C   C281      1.0  0.65506  0.26715  0.37220  1.0000
  C   C282      1.0  0.66154  0.25519  0.44474  1.0000
  C   C283      1.0  0.67204  0.24510  0.42755  1.0000
  N   N97       1.0  0.65695  0.25384  0.53194  1.0000
  N   N98       1.0  0.67877  0.23121  0.49587  1.0000
  O   O73       1.0  0.66075  0.27756  0.58725  1.0000
  O   O74       1.0  0.68060  0.25561  0.55708  1.0000
  O   O75       1.0  0.65647  0.22034  0.56557  1.0000
  O   O76       1.0  0.67615  0.19911  0.52928  1.0000
  C   C284      1.0  0.64449  0.27122  0.38315  1.0000
  H   H145      1.0  0.64072  0.24977  0.41389  1.0000
  C   C285      1.0  0.36158  0.75013  0.37174  1.0000
  C   C286      1.0  0.35509  0.76197  0.44432  1.0000
  C   C287      1.0  0.34458  0.77194  0.42715  1.0000
  N   N99       1.0  0.35968  0.76330  0.53153  1.0000
  N   N100      1.0  0.33784  0.78571  0.49553  1.0000
  O   O77       1.0  0.35590  0.73950  0.58674  1.0000
  O   O78       1.0  0.33603  0.76125  0.55665  1.0000
  O   O79       1.0  0.36013  0.79679  0.56530  1.0000
  O   O80       1.0  0.34043  0.81782  0.52903  1.0000
  C   C288      1.0  0.37215  0.74608  0.38276  1.0000
  H   H146      1.0  0.37592  0.76756  0.41346  1.0000
  C   C289      1.0  0.84078  0.74550  0.36667  1.0000
  C   C290      1.0  0.84744  0.75697  0.43747  1.0000
  C   C291      1.0  0.85777  0.76605  0.42095  1.0000
  H   H147      1.0  0.86239  0.77256  0.47513  1.0000
  H   H148      1.0  0.84493  0.75749  0.50333  1.0000
  C   C292      1.0  0.83105  0.73173  0.39090  1.0000
  H   H149      1.0  0.83034  0.71827  0.45047  1.0000
  C   C293      1.0  0.17573  0.27145  0.36621  1.0000
  C   C294      1.0  0.16905  0.26005  0.43699  1.0000
  C   C295      1.0  0.15872  0.25108  0.42044  1.0000
  H   H150      1.0  0.15409  0.24471  0.47463  1.0000
  H   H151      1.0  0.17156  0.25959  0.50288  1.0000
  C   C296      1.0  0.18547  0.28519  0.39049  1.0000
  H   H152      1.0  0.18618  0.29863  0.45009  1.0000
  C   C297      1.0  0.15506  0.76719  0.37138  1.0000
  C   C298      1.0  0.16156  0.75552  0.44401  1.0000
  C   C299      1.0  0.17207  0.74541  0.42676  1.0000
  N   N101      1.0  0.15700  0.75449  0.53134  1.0000
  N   N102      1.0  0.17882  0.73179  0.49519  1.0000
  O   O81       1.0  0.16082  0.77842  0.58607  1.0000
  O   O82       1.0  0.18066  0.75643  0.55585  1.0000
  O   O83       1.0  0.15654  0.72111  0.56565  1.0000
  O   O84       1.0  0.17622  0.69981  0.52930  1.0000
  C   C300      1.0  0.14450  0.77127  0.38251  1.0000
  H   H153      1.0  0.14073  0.74984  0.41344  1.0000
  C   C301      1.0  0.86158  0.25010  0.37089  1.0000
  C   C302      1.0  0.85508  0.26163  0.44356  1.0000
  C   C303      1.0  0.84457  0.27163  0.42634  1.0000
  N   N103      1.0  0.85963  0.26265  0.53091  1.0000
  N   N104      1.0  0.83780  0.28512  0.49482  1.0000
  O   O85       1.0  0.85584  0.23863  0.58551  1.0000
  O   O86       1.0  0.83597  0.26043  0.55539  1.0000
  O   O87       1.0  0.86006  0.29601  0.56537  1.0000
  O   O88       1.0  0.84037  0.31712  0.52905  1.0000
  C   C304      1.0  0.87215  0.24604  0.38209  1.0000
  H   H154      1.0  0.87591  0.26748  0.41301  1.0000
  C   C305      1.0  0.09458  0.31860  0.37566  1.0000
  C   C306      1.0  0.09033  0.34169  0.44683  1.0000
  C   C307      1.0  0.08325  0.37273  0.42737  1.0000
  N   N105      1.0  0.09313  0.33071  0.53618  1.0000
  N   N106      1.0  0.07863  0.39586  0.49572  1.0000
  O   O89       1.0  0.08583  0.31824  0.58332  1.0000
  O   O90       1.0  0.07252  0.37734  0.54533  1.0000
  O   O91       1.0  0.09814  0.35620  0.57805  1.0000
  O   O92       1.0  0.08485  0.41519  0.54244  1.0000
  C   C308      1.0  0.10253  0.29096  0.39047  1.0000
  H   H155      1.0  0.10720  0.29470  0.44555  1.0000
  C   C309      1.0  0.92190  0.69883  0.37724  1.0000
  C   C310      1.0  0.92610  0.67564  0.44841  1.0000
  C   C311      1.0  0.93320  0.64463  0.42898  1.0000
  N   N107      1.0  0.92326  0.68646  0.53773  1.0000
  N   N108      1.0  0.93779  0.62138  0.49731  1.0000
  O   O93       1.0  0.93053  0.69885  0.58531  1.0000
  O   O94       1.0  0.94386  0.63984  0.54732  1.0000
  O   O95       1.0  0.91822  0.66090  0.57915  1.0000
  O   O96       1.0  0.93153  0.60200  0.54364  1.0000
  C   C312      1.0  0.91396  0.72651  0.39196  1.0000
  H   H156      1.0  0.90925  0.72260  0.44677  1.0000
  C   C313      1.0  0.93717  0.38016  0.31496  1.0000
  C   C314      1.0  0.93887  0.33938  0.31961  1.0000
  C   C315      1.0  0.93078  0.31211  0.31770  1.0000
  H   H157      1.0  0.93256  0.28313  0.32252  1.0000
  H   H158      1.0  0.94619  0.32875  0.32535  1.0000
  C   C316      1.0  0.94587  0.40554  0.31937  1.0000
  H   H159      1.0  0.95300  0.39348  0.32628  1.0000
  C   C317      1.0  0.07947  0.63743  0.31714  1.0000
  C   C318      1.0  0.07779  0.67819  0.32281  1.0000
  C   C319      1.0  0.08588  0.70542  0.32029  1.0000
  H   H160      1.0  0.08412  0.73440  0.32584  1.0000
  H   H161      1.0  0.07048  0.68884  0.32969  1.0000
  C   C320      1.0  0.07078  0.61209  0.32222  1.0000
  H   H162      1.0  0.06366  0.62416  0.33061  1.0000
  C   C321      1.0  0.59459  0.81862  0.37540  1.0000
  C   C322      1.0  0.59034  0.84169  0.44660  1.0000
  C   C323      1.0  0.58325  0.87272  0.42720  1.0000
  N   N109      1.0  0.59315  0.83071  0.53593  1.0000
  N   N110      1.0  0.57864  0.89585  0.49558  1.0000
  O   O97       1.0  0.58585  0.81823  0.58310  1.0000
  O   O98       1.0  0.57253  0.87731  0.54521  1.0000
  O   O99       1.0  0.59815  0.85621  0.57780  1.0000
  O   O100      1.0  0.58486  0.91517  0.54228  1.0000
  C   C324      1.0  0.60254  0.79099  0.39016  1.0000
  H   H163      1.0  0.60722  0.79475  0.44519  1.0000
  C   C325      1.0  0.42188  0.19881  0.37697  1.0000
  C   C326      1.0  0.42609  0.17563  0.44817  1.0000
  C   C327      1.0  0.43319  0.14462  0.42880  1.0000
  N   N111      1.0  0.42323  0.18646  0.53748  1.0000
  N   N112      1.0  0.43777  0.12139  0.49716  1.0000
  O   O101      1.0  0.43050  0.19886  0.58509  1.0000
  O   O102      1.0  0.44384  0.13985  0.54720  1.0000
  O   O103      1.0  0.41820  0.16090  0.57887  1.0000
  O   O104      1.0  0.43152  0.10200  0.54346  1.0000
  C   C328      1.0  0.41393  0.22648  0.39162  1.0000
  H   H164      1.0  0.40923  0.22255  0.44638  1.0000
  C   C329      1.0  0.43717  0.88014  0.31503  1.0000
  C   C330      1.0  0.43887  0.83936  0.31970  1.0000
  C   C331      1.0  0.43078  0.81209  0.31783  1.0000
  H   H165      1.0  0.43256  0.78311  0.32268  1.0000
  H   H166      1.0  0.44619  0.82873  0.32546  1.0000
  C   C332      1.0  0.44586  0.90553  0.31942  1.0000
  H   H167      1.0  0.45300  0.89347  0.32634  1.0000
  C   C333      1.0  0.57946  0.13743  0.31724  1.0000
  C   C334      1.0  0.57778  0.17819  0.32294  1.0000
  C   C335      1.0  0.58588  0.20542  0.32045  1.0000
  H   H168      1.0  0.58411  0.23440  0.32605  1.0000
  H   H169      1.0  0.57048  0.18884  0.32983  1.0000
  C   C336      1.0  0.57077  0.11209  0.32230  1.0000
  H   H170      1.0  0.56365  0.12416  0.33069  1.0000
  C   C337      1.0  0.11549  0.96756  0.35881  1.0000
  C   C338      1.0  0.11458  0.99594  0.42906  1.0000
  C   C339      1.0  0.11422  0.03680  0.40801  1.0000
  N   N113      1.0  0.11362  0.98117  0.51851  1.0000
  N   N114      1.0  0.11316  0.06606  0.47522  1.0000
  O   O105      1.0  0.10513  0.98805  0.55519  1.0000
  O   O106      1.0  0.10464  0.06552  0.51474  1.0000
  O   O107      1.0  0.12091  0.99009  0.57001  1.0000
  O   O108      1.0  0.12038  0.06734  0.53140  1.0000
  C   C340      1.0  0.11728  0.92756  0.37733  1.0000
  H   H171      1.0  0.12068  0.92067  0.43783  1.0000
  C   C341      1.0  0.90113  0.04982  0.35847  1.0000
  C   C342      1.0  0.90200  0.02150  0.42887  1.0000
  C   C343      1.0  0.90233  0.98062  0.40803  1.0000
  N   N115      1.0  0.90297  0.03633  0.51828  1.0000
  N   N116      1.0  0.90337  0.95140  0.47539  1.0000
  O   O109      1.0  0.91145  0.02937  0.55508  1.0000
  O   O110      1.0  0.91188  0.95187  0.51492  1.0000
  O   O111      1.0  0.89567  0.02755  0.56972  1.0000
  O   O112      1.0  0.89614  0.95026  0.53155  1.0000
  C   C344      1.0  0.89939  0.08988  0.37681  1.0000
  H   H172      1.0  0.89597  0.09679  0.43720  1.0000
  C   C345      1.0  0.61547  0.46758  0.35889  1.0000
  C   C346      1.0  0.61457  0.49597  0.42908  1.0000
  C   C347      1.0  0.61420  0.53682  0.40795  1.0000
  N   N117      1.0  0.61361  0.48124  0.51858  1.0000
  N   N118      1.0  0.61315  0.56612  0.47509  1.0000
  O   O113      1.0  0.60512  0.48813  0.55529  1.0000
  O   O114      1.0  0.60463  0.56559  0.51469  1.0000
  O   O115      1.0  0.62091  0.49018  0.57000  1.0000
  O   O116      1.0  0.62037  0.56741  0.53122  1.0000
  C   C348      1.0  0.61728  0.42759  0.37742  1.0000
  H   H173      1.0  0.62067  0.42071  0.43793  1.0000
  C   C349      1.0  0.40111  0.54981  0.35865  1.0000
  C   C350      1.0  0.40199  0.52146  0.42898  1.0000
  C   C351      1.0  0.40231  0.48059  0.40803  1.0000
  N   N119      1.0  0.40296  0.53624  0.51842  1.0000
  N   N120      1.0  0.40333  0.45133  0.47532  1.0000
  O   O117      1.0  0.41144  0.52926  0.55516  1.0000
  O   O118      1.0  0.41184  0.45175  0.51498  1.0000
  O   O119      1.0  0.39566  0.52744  0.56989  1.0000
  O   O120      1.0  0.39610  0.45018  0.53138  1.0000
  C   C352      1.0  0.39937  0.58986  0.37710  1.0000
  H   H174      1.0  0.39599  0.59682  0.43763  1.0000
  C   C353      1.0  0.99737  0.51424  0.36875  1.0000
  C   C354      1.0  0.00416  0.52196  0.44157  1.0000
  C   C355      1.0  0.01483  0.51584  0.43436  1.0000
  H   H175      1.0  0.01933  0.52085  0.49012  1.0000
  H   H176      1.0  0.00135  0.53203  0.50206  1.0000
  C   C356      1.0  0.98691  0.52398  0.37904  1.0000
  H   H177      1.0  0.98535  0.54970  0.40677  1.0000
  C   C357      1.0  0.49737  0.01420  0.36878  1.0000
  C   C358      1.0  0.50416  0.02190  0.44161  1.0000
  C   C359      1.0  0.51482  0.01579  0.43441  1.0000
  H   H178      1.0  0.51932  0.02076  0.49022  1.0000
  H   H179      1.0  0.50133  0.03191  0.50214  1.0000
  C   C360      1.0  0.48690  0.02396  0.37903  1.0000
  H   H180      1.0  0.48535  0.04970  0.40670  1.0000
