data_image0
_chemical_formula_structural       C2H2C2H2C2H2C2H2C4H2C4H2C2H2C2H2C4H2C4H2C2H2C2H2C2H2C2H2C4H2C4H2C4H2C4H2CNCNCNCNCNCNCNCNCNCNCNCNCNCNCNCNCNCNCNCNCNCNCNCNCNCNCNCNCNCNCNCNCNCNCNCNC4H2C4H2C4H2C4H2C2H2C2H2C4H2C4H2C2H2C2H2C4H2C4H2C4H2C4H2C2H2C2H2C2H2C2H2C2H2C2H2C2H2C2H2C4H2C4H2C2H2C2H2C4H2C4H2C2H2C2H2C2H2C2H2C4H2C4H2C4H2C4H2CNCNCNCNCNCNCNCNCNCNCNCNCNCNCNCNCNCNCNCNCNCNCNCNCNCNCNCNCNCNCNCNCNCNCNCNC4H2C4H2C4H2C4H2C2H2C2H2C4H2C4H2C2H2C2H2C4H2C4H2C4H2C4H2C2H2C2H2C2H2C2H2
_chemical_formula_sum              "C288 H144 N72"
_cell_length_a       42.539
_cell_length_b       55.1504
_cell_length_c       14.9399
_cell_angle_alpha    90
_cell_angle_beta     90
_cell_angle_gamma    90

_space_group_name_H-M_alt    "P 1"
_space_group_IT_number       1

loop_
  _space_group_symop_operation_xyz
  'x, y, z'

loop_
  _atom_site_type_symbol
  _atom_site_label
  _atom_site_symmetry_multiplicity
  _atom_site_fract_x
  _atom_site_fract_y
  _atom_site_fract_z
  _atom_site_occupancy
  C   C1        1.0  0.23478  0.18772  0.25745  1.0000
  C   C2        1.0  0.26750  0.18760  0.25324  1.0000
  H   H1        1.0  0.22372  0.20323  0.23686  1.0000
  H   H2        1.0  0.27800  0.20308  0.23012  1.0000
  C   C3        1.0  0.26887  0.81647  0.25448  1.0000
  C   C4        1.0  0.23612  0.81652  0.25269  1.0000
  H   H3        1.0  0.27979  0.80097  0.23313  1.0000
  H   H4        1.0  0.22545  0.80104  0.23017  1.0000
  C   C5        1.0  0.48516  0.69229  0.29190  1.0000
  C   C6        1.0  0.01783  0.69228  0.28969  1.0000
  H   H5        1.0  0.47445  0.70837  0.27648  1.0000
  H   H6        1.0  0.02825  0.70838  0.27290  1.0000
  C   C7        1.0  0.01912  0.31175  0.29500  1.0000
  C   C8        1.0  0.48647  0.31178  0.29054  1.0000
  H   H7        1.0  0.02992  0.29563  0.28058  1.0000
  H   H8        1.0  0.47620  0.29566  0.27328  1.0000
  C   C9        1.0  0.11410  0.11547  0.35178  1.0000
  C   C10       1.0  0.08865  0.09888  0.35592  1.0000
  C   C11       1.0  0.05751  0.10689  0.37219  1.0000
  C   C12       1.0  0.10958  0.14074  0.36476  1.0000
  H   H9        1.0  0.09283  0.08101  0.34189  1.0000
  H   H10       1.0  0.13586  0.10898  0.33518  1.0000
  C   C13       1.0  0.39026  0.88856  0.34581  1.0000
  C   C14       1.0  0.41576  0.90510  0.35084  1.0000
  C   C15       1.0  0.44684  0.89703  0.36769  1.0000
  C   C16       1.0  0.39468  0.86325  0.35808  1.0000
  H   H11       1.0  0.41162  0.92303  0.33777  1.0000
  H   H12       1.0  0.36853  0.89513  0.32946  1.0000
  C   C17       1.0  0.45079  0.13248  0.37179  1.0000
  C   C18       1.0  0.42573  0.14875  0.36457  1.0000
  H   H13       1.0  0.47231  0.13992  0.38504  1.0000
  H   H14       1.0  0.43091  0.16672  0.37310  1.0000
  C   C19       1.0  0.05372  0.87167  0.38045  1.0000
  C   C20       1.0  0.07879  0.85539  0.37401  1.0000
  H   H15       1.0  0.03223  0.86433  0.39476  1.0000
  H   H16       1.0  0.07368  0.83745  0.38382  1.0000
  C   C21       1.0  0.36372  0.61664  0.34473  1.0000
  C   C22       1.0  0.33860  0.59966  0.34562  1.0000
  C   C23       1.0  0.30697  0.60725  0.35621  1.0000
  C   C24       1.0  0.35831  0.64192  0.35483  1.0000
  H   H17       1.0  0.34353  0.58173  0.33532  1.0000
  H   H18       1.0  0.38602  0.61039  0.33391  1.0000
  C   C25       1.0  0.14011  0.38736  0.35396  1.0000
  C   C26       1.0  0.16519  0.40435  0.35430  1.0000
  C   C27       1.0  0.19683  0.39676  0.36441  1.0000
  C   C28       1.0  0.14555  0.36212  0.36484  1.0000
  H   H19       1.0  0.16027  0.42222  0.34240  1.0000
  H   H20       1.0  0.11782  0.39356  0.34231  1.0000
  C   C29       1.0  0.20193  0.63297  0.35521  1.0000
  C   C30       1.0  0.17730  0.64964  0.35210  1.0000
  H   H21       1.0  0.22388  0.64022  0.36139  1.0000
  H   H22       1.0  0.18337  0.66755  0.35640  1.0000
  C   C31       1.0  0.30149  0.37088  0.33840  1.0000
  C   C32       1.0  0.32619  0.35426  0.33492  1.0000
  H   H23       1.0  0.27944  0.36357  0.34049  1.0000
  H   H24       1.0  0.32008  0.33632  0.33539  1.0000
  C   C33       1.0  0.15995  0.24458  0.33878  1.0000
  C   C34       1.0  0.15155  0.26927  0.34253  1.0000
  H   H25       1.0  0.18320  0.24044  0.33028  1.0000
  H   H26       1.0  0.16887  0.28200  0.33547  1.0000
  C   C35       1.0  0.34413  0.75950  0.32986  1.0000
  C   C36       1.0  0.35249  0.73480  0.33350  1.0000
  H   H27       1.0  0.32094  0.76365  0.32010  1.0000
  H   H28       1.0  0.33522  0.72208  0.32520  1.0000
  C   C37       1.0  0.35287  0.26911  0.31032  1.0000
  C   C38       1.0  0.34444  0.24442  0.30801  1.0000
  C   C39       1.0  0.36721  0.22579  0.31774  1.0000
  C   C40       1.0  0.38453  0.27627  0.32160  1.0000
  H   H29       1.0  0.32121  0.24027  0.29919  1.0000
  H   H30       1.0  0.33557  0.28182  0.30231  1.0000
  C   C41       1.0  0.15117  0.73488  0.31668  1.0000
  C   C42       1.0  0.15962  0.75957  0.31399  1.0000
  C   C43       1.0  0.13692  0.77822  0.32440  1.0000
  C   C44       1.0  0.11953  0.72777  0.32890  1.0000
  H   H31       1.0  0.18282  0.76369  0.30440  1.0000
  H   H32       1.0  0.16840  0.72215  0.30807  1.0000
  C   C45       1.0  0.97421  0.98919  0.33682  1.0000
  C   C46       1.0  0.97422  0.01477  0.33668  1.0000
  C   C47       1.0  0.00238  0.02826  0.34643  1.0000
  C   C48       1.0  0.00237  0.97569  0.34658  1.0000
  H   H33       1.0  0.95308  0.02345  0.33054  1.0000
  H   H34       1.0  0.95307  0.98051  0.33069  1.0000
  C   C49       1.0  0.27882  0.48918  0.31735  1.0000
  C   C50       1.0  0.27886  0.51476  0.31736  1.0000
  C   C51       1.0  0.25165  0.52822  0.34022  1.0000
  C   C52       1.0  0.25160  0.47575  0.34050  1.0000
  H   H35       1.0  0.29920  0.52347  0.29996  1.0000
  H   H36       1.0  0.29915  0.48045  0.30005  1.0000
  C   C53       1.0  0.18542  0.17102  0.31281  1.0000
  N   N1        1.0  0.16411  0.15314  0.33135  1.0000
  C   C54       1.0  0.13349  0.15842  0.35229  1.0000
  N   N2        1.0  0.12542  0.18239  0.35658  1.0000
  C   C55       1.0  0.14557  0.20090  0.34089  1.0000
  N   N3        1.0  0.17502  0.19427  0.31864  1.0000
  C   C56       1.0  0.31858  0.83312  0.30759  1.0000
  N   N4        1.0  0.33999  0.85097  0.32573  1.0000
  C   C57       1.0  0.37068  0.84563  0.34559  1.0000
  N   N5        1.0  0.37871  0.82165  0.34929  1.0000
  C   C58       1.0  0.35849  0.80317  0.33385  1.0000
  N   N6        1.0  0.32897  0.80986  0.31267  1.0000
  C   C59       1.0  0.31817  0.17079  0.29807  1.0000
  N   N7        1.0  0.33975  0.15301  0.31569  1.0000
  C   C60       1.0  0.37074  0.15838  0.33140  1.0000
  N   N8        1.0  0.37892  0.18235  0.33133  1.0000
  C   C61       1.0  0.35864  0.20077  0.31577  1.0000
  N   N9        1.0  0.32881  0.19402  0.29912  1.0000
  C   C62       1.0  0.18582  0.83321  0.30136  1.0000
  N   N10       1.0  0.16440  0.85099  0.32035  1.0000
  C   C63       1.0  0.13356  0.84562  0.33825  1.0000
  N   N11       1.0  0.12536  0.82166  0.33880  1.0000
  C   C64       1.0  0.14552  0.80324  0.32197  1.0000
  N   N12       1.0  0.17521  0.80996  0.30321  1.0000
  C   C65       1.0  0.43480  0.67365  0.32777  1.0000
  N   N13       1.0  0.41342  0.65530  0.33755  1.0000
  C   C66       1.0  0.38201  0.66001  0.34888  1.0000
  N   N14       1.0  0.37303  0.68384  0.35143  1.0000
  C   C67       1.0  0.39310  0.70273  0.34400  1.0000
  N   N15       1.0  0.42337  0.69661  0.33181  1.0000
  C   C68       1.0  0.06925  0.33041  0.33344  1.0000
  N   N16       1.0  0.09056  0.34874  0.34468  1.0000
  C   C69       1.0  0.12190  0.34402  0.35784  1.0000
  N   N17       1.0  0.13089  0.32020  0.36043  1.0000
  C   C70       1.0  0.11087  0.30132  0.35147  1.0000
  N   N18       1.0  0.08068  0.30745  0.33771  1.0000
  C   C71       1.0  0.06874  0.67367  0.31943  1.0000
  N   N19       1.0  0.09026  0.65539  0.32866  1.0000
  C   C72       1.0  0.12180  0.66018  0.33635  1.0000
  N   N20       1.0  0.13073  0.68402  0.33609  1.0000
  C   C73       1.0  0.11058  0.70285  0.32894  1.0000
  N   N21       1.0  0.08020  0.69665  0.32043  1.0000
  C   C74       1.0  0.43528  0.33046  0.31573  1.0000
  N   N22       1.0  0.41360  0.34872  0.32255  1.0000
  C   C75       1.0  0.38198  0.34389  0.32697  1.0000
  N   N23       1.0  0.37314  0.32003  0.32637  1.0000
  C   C76       1.0  0.39341  0.30121  0.32172  1.0000
  N   N24       1.0  0.42385  0.30747  0.31609  1.0000
  C   C77       1.0  0.03061  0.09164  0.36746  1.0000
  N   N25       1.0  0.02988  0.06708  0.35788  1.0000
  C   C78       1.0  0.00228  0.05428  0.35113  1.0000
  N   N26       1.0  0.47462  0.06715  0.35192  1.0000
  C   C79       1.0  0.47380  0.09176  0.36071  1.0000
  N   N27       1.0  0.00218  0.10252  0.36844  1.0000
  C   C80       1.0  0.47376  0.91232  0.36529  1.0000
  N   N28       1.0  0.47457  0.93689  0.35562  1.0000
  C   C81       1.0  0.50225  0.94968  0.35153  1.0000
  N   N29       1.0  0.02987  0.93681  0.35526  1.0000
  C   C82       1.0  0.03062  0.91224  0.36463  1.0000
  N   N30       1.0  0.50218  0.90146  0.36947  1.0000
  C   C83       1.0  0.28045  0.59154  0.35225  1.0000
  N   N31       1.0  0.27962  0.56689  0.34601  1.0000
  C   C84       1.0  0.25181  0.55419  0.34269  1.0000
  N   N32       1.0  0.22412  0.56707  0.34413  1.0000
  C   C85       1.0  0.22345  0.59174  0.34907  1.0000
  N   N33       1.0  0.25199  0.60228  0.35320  1.0000
  C   C86       1.0  0.22332  0.41237  0.35680  1.0000
  N   N34       1.0  0.22405  0.43701  0.35097  1.0000
  C   C87       1.0  0.25169  0.44975  0.34286  1.0000
  N   N35       1.0  0.27934  0.43686  0.33882  1.0000
  C   C88       1.0  0.28007  0.41216  0.34261  1.0000
  N   N36       1.0  0.25168  0.40158  0.35194  1.0000
  C   C89       1.0  0.26848  0.14656  0.30976  1.0000
  C   C90       1.0  0.23513  0.14661  0.31338  1.0000
  C   C91       1.0  0.21778  0.16789  0.29326  1.0000
  C   C92       1.0  0.28536  0.16773  0.28537  1.0000
  H   H37       1.0  0.22393  0.13187  0.34004  1.0000
  H   H38       1.0  0.28028  0.13179  0.33390  1.0000
  C   C93       1.0  0.23552  0.85750  0.30982  1.0000
  C   C94       1.0  0.26889  0.85751  0.31120  1.0000
  C   C95       1.0  0.28610  0.83627  0.28968  1.0000
  C   C96       1.0  0.21849  0.83632  0.28633  1.0000
  H   H39       1.0  0.28026  0.87222  0.33743  1.0000
  H   H40       1.0  0.22390  0.87225  0.33490  1.0000
  C   C97       1.0  0.01850  0.64975  0.32785  1.0000
  C   C98       1.0  0.48512  0.64973  0.32975  1.0000
  C   C99       1.0  0.46776  0.67138  0.31609  1.0000
  C   C100      1.0  0.03562  0.67139  0.31180  1.0000
  H   H41       1.0  0.47368  0.63413  0.34734  1.0000
  H   H42       1.0  0.03020  0.63415  0.34393  1.0000
  C   C101      1.0  0.48552  0.35434  0.32787  1.0000
  C   C102      1.0  0.01888  0.35434  0.33211  1.0000
  C   C103      1.0  0.03635  0.33267  0.31987  1.0000
  C   C104      1.0  0.46849  0.33270  0.31091  1.0000
  H   H43       1.0  0.03018  0.36998  0.34994  1.0000
  H   H44       1.0  0.47370  0.36999  0.34255  1.0000
  C   C105      1.0  0.05364  0.13197  0.39040  1.0000
  C   C106      1.0  0.07876  0.14830  0.38710  1.0000
  H   H45       1.0  0.03210  0.13914  0.40530  1.0000
  H   H46       1.0  0.07361  0.16614  0.39903  1.0000
  C   C107      1.0  0.45061  0.87187  0.38464  1.0000
  C   C108      1.0  0.42549  0.85558  0.38012  1.0000
  H   H47       1.0  0.47210  0.86460  0.39945  1.0000
  H   H48       1.0  0.43059  0.83771  0.39144  1.0000
  C   C109      1.0  0.39034  0.11546  0.33634  1.0000
  C   C110      1.0  0.41584  0.09896  0.34332  1.0000
  C   C111      1.0  0.44694  0.10714  0.35934  1.0000
  C   C112      1.0  0.39482  0.14087  0.34473  1.0000
  H   H49       1.0  0.41162  0.08089  0.33358  1.0000
  H   H50       1.0  0.36854  0.10873  0.32167  1.0000
  C   C113      1.0  0.11407  0.88854  0.34253  1.0000
  C   C114      1.0  0.08859  0.90507  0.34909  1.0000
  C   C115      1.0  0.05752  0.89692  0.36565  1.0000
  C   C116      1.0  0.10960  0.86317  0.35239  1.0000
  H   H51       1.0  0.09276  0.92307  0.33768  1.0000
  H   H52       1.0  0.13581  0.89520  0.32671  1.0000
  C   C117      1.0  0.30219  0.63246  0.37012  1.0000
  C   C118      1.0  0.32682  0.64915  0.36941  1.0000
  H   H53       1.0  0.28035  0.63951  0.38094  1.0000
  H   H54       1.0  0.32088  0.66694  0.37900  1.0000
  C   C119      1.0  0.20167  0.37166  0.38038  1.0000
  C   C120      1.0  0.17701  0.35496  0.38071  1.0000
  H   H55       1.0  0.22360  0.36474  0.39169  1.0000
  H   H56       1.0  0.18293  0.33720  0.39119  1.0000
  C   C121      1.0  0.14018  0.61681  0.33836  1.0000
  C   C122      1.0  0.16531  0.59986  0.34133  1.0000
  C   C123      1.0  0.19700  0.60755  0.34894  1.0000
  C   C124      1.0  0.14563  0.64220  0.34261  1.0000
  H   H57       1.0  0.16027  0.58178  0.33643  1.0000
  H   H58       1.0  0.11776  0.61040  0.33130  1.0000
  C   C125      1.0  0.36339  0.38720  0.33000  1.0000
  C   C126      1.0  0.33820  0.40411  0.33313  1.0000
  C   C127      1.0  0.30647  0.39634  0.33811  1.0000
  C   C128      1.0  0.35797  0.36179  0.33090  1.0000
  H   H59       1.0  0.34328  0.42223  0.33257  1.0000
  H   H60       1.0  0.38588  0.39369  0.32678  1.0000
  C   C129      1.0  0.09703  0.25775  0.36088  1.0000
  C   C130      1.0  0.10548  0.23308  0.35828  1.0000
  C   C131      1.0  0.13710  0.22592  0.34610  1.0000
  C   C132      1.0  0.11983  0.27639  0.35255  1.0000
  H   H61       1.0  0.08803  0.22040  0.36382  1.0000
  H   H62       1.0  0.07376  0.26187  0.36895  1.0000
  C   C133      1.0  0.40687  0.74628  0.35523  1.0000
  C   C134      1.0  0.39846  0.77094  0.35261  1.0000
  C   C135      1.0  0.36692  0.77814  0.33880  1.0000
  C   C136      1.0  0.38414  0.72765  0.34516  1.0000
  H   H63       1.0  0.41586  0.78361  0.35953  1.0000
  H   H64       1.0  0.43008  0.74213  0.36459  1.0000
  C   C137      1.0  0.39881  0.23298  0.33025  1.0000
  C   C138      1.0  0.40726  0.25765  0.33178  1.0000
  H   H65       1.0  0.41619  0.22032  0.33783  1.0000
  H   H66       1.0  0.43049  0.26178  0.34093  1.0000
  C   C139      1.0  0.10536  0.77106  0.33791  1.0000
  C   C140      1.0  0.09686  0.74641  0.33967  1.0000
  H   H67       1.0  0.08803  0.78374  0.34596  1.0000
  H   H68       1.0  0.07367  0.74229  0.34954  1.0000
  C   C141      1.0  0.03059  0.01475  0.35476  1.0000
  C   C142      1.0  0.03059  0.98919  0.35476  1.0000
  H   H69       1.0  0.05168  0.02340  0.36277  1.0000
  H   H70       1.0  0.05167  0.98053  0.36292  1.0000
  C   C143      1.0  0.22435  0.51480  0.36266  1.0000
  C   C144      1.0  0.22435  0.48924  0.36293  1.0000
  H   H71       1.0  0.20414  0.52351  0.38114  1.0000
  H   H72       1.0  0.20408  0.48060  0.38138  1.0000
  C   C145      1.0  0.73478  0.18772  0.25745  1.0000
  C   C146      1.0  0.76750  0.18760  0.25324  1.0000
  H   H73       1.0  0.72372  0.20323  0.23686  1.0000
  H   H74       1.0  0.77800  0.20308  0.23012  1.0000
  C   C147      1.0  0.76887  0.81647  0.25448  1.0000
  C   C148      1.0  0.73612  0.81652  0.25269  1.0000
  H   H75       1.0  0.77979  0.80097  0.23313  1.0000
  H   H76       1.0  0.72545  0.80104  0.23017  1.0000
  C   C149      1.0  0.98516  0.69229  0.29190  1.0000
  C   C150      1.0  0.51783  0.69228  0.28969  1.0000
  H   H77       1.0  0.97445  0.70837  0.27648  1.0000
  H   H78       1.0  0.52825  0.70838  0.27290  1.0000
  C   C151      1.0  0.51912  0.31175  0.29500  1.0000
  C   C152      1.0  0.98648  0.31178  0.29054  1.0000
  H   H79       1.0  0.52992  0.29563  0.28058  1.0000
  H   H80       1.0  0.97620  0.29566  0.27328  1.0000
  C   C153      1.0  0.61410  0.11547  0.35178  1.0000
  C   C154      1.0  0.58865  0.09888  0.35592  1.0000
  C   C155      1.0  0.55751  0.10689  0.37219  1.0000
  C   C156      1.0  0.60958  0.14074  0.36476  1.0000
  H   H81       1.0  0.59283  0.08101  0.34189  1.0000
  H   H82       1.0  0.63586  0.10898  0.33518  1.0000
  C   C157      1.0  0.89026  0.88856  0.34581  1.0000
  C   C158      1.0  0.91576  0.90510  0.35084  1.0000
  C   C159      1.0  0.94684  0.89703  0.36769  1.0000
  C   C160      1.0  0.89468  0.86325  0.35808  1.0000
  H   H83       1.0  0.91162  0.92303  0.33777  1.0000
  H   H84       1.0  0.86853  0.89513  0.32946  1.0000
  C   C161      1.0  0.95080  0.13248  0.37179  1.0000
  C   C162      1.0  0.92573  0.14875  0.36457  1.0000
  H   H85       1.0  0.97230  0.13992  0.38504  1.0000
  H   H86       1.0  0.93091  0.16672  0.37310  1.0000
  C   C163      1.0  0.55372  0.87167  0.38045  1.0000
  C   C164      1.0  0.57879  0.85539  0.37401  1.0000
  H   H87       1.0  0.53223  0.86433  0.39476  1.0000
  H   H88       1.0  0.57368  0.83745  0.38382  1.0000
  C   C165      1.0  0.86372  0.61664  0.34473  1.0000
  C   C166      1.0  0.83860  0.59966  0.34562  1.0000
  C   C167      1.0  0.80697  0.60725  0.35621  1.0000
  C   C168      1.0  0.85831  0.64192  0.35483  1.0000
  H   H89       1.0  0.84354  0.58173  0.33532  1.0000
  H   H90       1.0  0.88602  0.61039  0.33391  1.0000
  C   C169      1.0  0.64011  0.38736  0.35396  1.0000
  C   C170      1.0  0.66519  0.40435  0.35430  1.0000
  C   C171      1.0  0.69683  0.39676  0.36441  1.0000
  C   C172      1.0  0.64555  0.36212  0.36484  1.0000
  H   H91       1.0  0.66027  0.42222  0.34240  1.0000
  H   H92       1.0  0.61782  0.39356  0.34231  1.0000
  C   C173      1.0  0.70193  0.63297  0.35521  1.0000
  C   C174      1.0  0.67730  0.64964  0.35210  1.0000
  H   H93       1.0  0.72388  0.64022  0.36139  1.0000
  H   H94       1.0  0.68337  0.66755  0.35640  1.0000
  C   C175      1.0  0.80149  0.37088  0.33840  1.0000
  C   C176      1.0  0.82619  0.35426  0.33492  1.0000
  H   H95       1.0  0.77944  0.36357  0.34049  1.0000
  H   H96       1.0  0.82008  0.33632  0.33539  1.0000
  C   C177      1.0  0.65995  0.24458  0.33878  1.0000
  C   C178      1.0  0.65155  0.26927  0.34253  1.0000
  H   H97       1.0  0.68320  0.24044  0.33028  1.0000
  H   H98       1.0  0.66887  0.28200  0.33547  1.0000
  C   C179      1.0  0.84413  0.75950  0.32986  1.0000
  C   C180      1.0  0.85250  0.73480  0.33350  1.0000
  H   H99       1.0  0.82094  0.76365  0.32010  1.0000
  H   H100      1.0  0.83522  0.72208  0.32520  1.0000
  C   C181      1.0  0.85287  0.26911  0.31032  1.0000
  C   C182      1.0  0.84444  0.24442  0.30801  1.0000
  C   C183      1.0  0.86721  0.22579  0.31774  1.0000
  C   C184      1.0  0.88453  0.27627  0.32160  1.0000
  H   H101      1.0  0.82121  0.24027  0.29919  1.0000
  H   H102      1.0  0.83556  0.28182  0.30231  1.0000
  C   C185      1.0  0.65117  0.73488  0.31668  1.0000
  C   C186      1.0  0.65962  0.75957  0.31399  1.0000
  C   C187      1.0  0.63692  0.77822  0.32440  1.0000
  C   C188      1.0  0.61953  0.72777  0.32890  1.0000
  H   H103      1.0  0.68282  0.76369  0.30440  1.0000
  H   H104      1.0  0.66840  0.72215  0.30807  1.0000
  C   C189      1.0  0.47421  0.98919  0.33682  1.0000
  C   C190      1.0  0.47422  0.01477  0.33668  1.0000
  C   C191      1.0  0.50238  0.02826  0.34643  1.0000
  C   C192      1.0  0.50237  0.97569  0.34658  1.0000
  H   H105      1.0  0.45308  0.02345  0.33054  1.0000
  H   H106      1.0  0.45307  0.98051  0.33069  1.0000
  C   C193      1.0  0.77882  0.48918  0.31735  1.0000
  C   C194      1.0  0.77886  0.51476  0.31736  1.0000
  C   C195      1.0  0.75165  0.52822  0.34022  1.0000
  C   C196      1.0  0.75160  0.47575  0.34050  1.0000
  H   H107      1.0  0.79920  0.52347  0.29996  1.0000
  H   H108      1.0  0.79916  0.48045  0.30005  1.0000
  C   C197      1.0  0.68542  0.17102  0.31281  1.0000
  N   N37       1.0  0.66411  0.15314  0.33135  1.0000
  C   C198      1.0  0.63349  0.15842  0.35229  1.0000
  N   N38       1.0  0.62542  0.18239  0.35658  1.0000
  C   C199      1.0  0.64557  0.20090  0.34089  1.0000
  N   N39       1.0  0.67502  0.19427  0.31864  1.0000
  C   C200      1.0  0.81858  0.83312  0.30759  1.0000
  N   N40       1.0  0.83999  0.85097  0.32573  1.0000
  C   C201      1.0  0.87069  0.84563  0.34559  1.0000
  N   N41       1.0  0.87871  0.82165  0.34929  1.0000
  C   C202      1.0  0.85849  0.80317  0.33385  1.0000
  N   N42       1.0  0.82898  0.80986  0.31267  1.0000
  C   C203      1.0  0.81817  0.17079  0.29807  1.0000
  N   N43       1.0  0.83975  0.15301  0.31569  1.0000
  C   C204      1.0  0.87074  0.15838  0.33140  1.0000
  N   N44       1.0  0.87892  0.18235  0.33133  1.0000
  C   C205      1.0  0.85864  0.20077  0.31577  1.0000
  N   N45       1.0  0.82881  0.19402  0.29912  1.0000
  C   C206      1.0  0.68582  0.83321  0.30136  1.0000
  N   N46       1.0  0.66440  0.85099  0.32035  1.0000
  C   C207      1.0  0.63356  0.84562  0.33825  1.0000
  N   N47       1.0  0.62536  0.82166  0.33880  1.0000
  C   C208      1.0  0.64552  0.80324  0.32197  1.0000
  N   N48       1.0  0.67521  0.80996  0.30321  1.0000
  C   C209      1.0  0.93480  0.67365  0.32777  1.0000
  N   N49       1.0  0.91342  0.65530  0.33755  1.0000
  C   C210      1.0  0.88201  0.66001  0.34888  1.0000
  N   N50       1.0  0.87303  0.68384  0.35143  1.0000
  C   C211      1.0  0.89311  0.70273  0.34400  1.0000
  N   N51       1.0  0.92337  0.69661  0.33181  1.0000
  C   C212      1.0  0.56925  0.33041  0.33344  1.0000
  N   N52       1.0  0.59056  0.34874  0.34468  1.0000
  C   C213      1.0  0.62189  0.34402  0.35784  1.0000
  N   N53       1.0  0.63089  0.32020  0.36043  1.0000
  C   C214      1.0  0.61087  0.30132  0.35147  1.0000
  N   N54       1.0  0.58068  0.30745  0.33771  1.0000
  C   C215      1.0  0.56874  0.67367  0.31943  1.0000
  N   N55       1.0  0.59026  0.65539  0.32866  1.0000
  C   C216      1.0  0.62180  0.66018  0.33635  1.0000
  N   N56       1.0  0.63073  0.68402  0.33609  1.0000
  C   C217      1.0  0.61058  0.70285  0.32894  1.0000
  N   N57       1.0  0.58020  0.69665  0.32043  1.0000
  C   C218      1.0  0.93529  0.33046  0.31573  1.0000
  N   N58       1.0  0.91360  0.34872  0.32255  1.0000
  C   C219      1.0  0.88198  0.34389  0.32697  1.0000
  N   N59       1.0  0.87314  0.32003  0.32637  1.0000
  C   C220      1.0  0.89341  0.30121  0.32172  1.0000
  N   N60       1.0  0.92385  0.30747  0.31609  1.0000
  C   C221      1.0  0.53061  0.09164  0.36746  1.0000
  N   N61       1.0  0.52988  0.06708  0.35788  1.0000
  C   C222      1.0  0.50228  0.05428  0.35113  1.0000
  N   N62       1.0  0.97462  0.06715  0.35192  1.0000
  C   C223      1.0  0.97380  0.09176  0.36071  1.0000
  N   N63       1.0  0.50218  0.10252  0.36844  1.0000
  C   C224      1.0  0.97377  0.91232  0.36529  1.0000
  N   N64       1.0  0.97458  0.93689  0.35562  1.0000
  C   C225      1.0  0.00226  0.94968  0.35153  1.0000
  N   N65       1.0  0.52987  0.93681  0.35526  1.0000
  C   C226      1.0  0.53062  0.91224  0.36463  1.0000
  N   N66       1.0  0.00218  0.90146  0.36947  1.0000
  C   C227      1.0  0.78045  0.59154  0.35225  1.0000
  N   N67       1.0  0.77962  0.56689  0.34601  1.0000
  C   C228      1.0  0.75181  0.55419  0.34269  1.0000
  N   N68       1.0  0.72412  0.56707  0.34413  1.0000
  C   C229      1.0  0.72345  0.59174  0.34907  1.0000
  N   N69       1.0  0.75199  0.60228  0.35320  1.0000
  C   C230      1.0  0.72332  0.41237  0.35680  1.0000
  N   N70       1.0  0.72405  0.43701  0.35097  1.0000
  C   C231      1.0  0.75169  0.44975  0.34286  1.0000
  N   N71       1.0  0.77934  0.43686  0.33882  1.0000
  C   C232      1.0  0.78007  0.41216  0.34261  1.0000
  N   N72       1.0  0.75168  0.40158  0.35194  1.0000
  C   C233      1.0  0.76848  0.14656  0.30976  1.0000
  C   C234      1.0  0.73513  0.14661  0.31338  1.0000
  C   C235      1.0  0.71778  0.16789  0.29326  1.0000
  C   C236      1.0  0.78536  0.16773  0.28537  1.0000
  H   H109      1.0  0.72393  0.13187  0.34004  1.0000
  H   H110      1.0  0.78028  0.13179  0.33390  1.0000
  C   C237      1.0  0.73552  0.85750  0.30982  1.0000
  C   C238      1.0  0.76889  0.85751  0.31120  1.0000
  C   C239      1.0  0.78611  0.83627  0.28968  1.0000
  C   C240      1.0  0.71849  0.83632  0.28633  1.0000
  H   H111      1.0  0.78026  0.87222  0.33743  1.0000
  H   H112      1.0  0.72390  0.87225  0.33490  1.0000
  C   C241      1.0  0.51850  0.64975  0.32785  1.0000
  C   C242      1.0  0.98512  0.64973  0.32975  1.0000
  C   C243      1.0  0.96776  0.67138  0.31609  1.0000
  C   C244      1.0  0.53562  0.67139  0.31180  1.0000
  H   H113      1.0  0.97369  0.63413  0.34734  1.0000
  H   H114      1.0  0.53020  0.63415  0.34393  1.0000
  C   C245      1.0  0.98552  0.35434  0.32787  1.0000
  C   C246      1.0  0.51889  0.35434  0.33211  1.0000
  C   C247      1.0  0.53636  0.33267  0.31987  1.0000
  C   C248      1.0  0.96849  0.33270  0.31091  1.0000
  H   H115      1.0  0.53018  0.36998  0.34994  1.0000
  H   H116      1.0  0.97370  0.36999  0.34255  1.0000
  C   C249      1.0  0.55365  0.13197  0.39040  1.0000
  C   C250      1.0  0.57876  0.14830  0.38710  1.0000
  H   H117      1.0  0.53210  0.13914  0.40530  1.0000
  H   H118      1.0  0.57361  0.16614  0.39903  1.0000
  C   C251      1.0  0.95061  0.87187  0.38464  1.0000
  C   C252      1.0  0.92549  0.85558  0.38012  1.0000
  H   H119      1.0  0.97210  0.86460  0.39945  1.0000
  H   H120      1.0  0.93059  0.83771  0.39144  1.0000
  C   C253      1.0  0.89034  0.11546  0.33634  1.0000
  C   C254      1.0  0.91584  0.09896  0.34332  1.0000
  C   C255      1.0  0.94694  0.10714  0.35934  1.0000
  C   C256      1.0  0.89482  0.14087  0.34473  1.0000
  H   H121      1.0  0.91162  0.08089  0.33358  1.0000
  H   H122      1.0  0.86854  0.10873  0.32167  1.0000
  C   C257      1.0  0.61407  0.88854  0.34253  1.0000
  C   C258      1.0  0.58859  0.90507  0.34909  1.0000
  C   C259      1.0  0.55752  0.89692  0.36565  1.0000
  C   C260      1.0  0.60959  0.86317  0.35239  1.0000
  H   H123      1.0  0.59276  0.92307  0.33768  1.0000
  H   H124      1.0  0.63581  0.89520  0.32671  1.0000
  C   C261      1.0  0.80219  0.63246  0.37012  1.0000
  C   C262      1.0  0.82682  0.64915  0.36941  1.0000
  H   H125      1.0  0.78035  0.63951  0.38094  1.0000
  H   H126      1.0  0.82087  0.66694  0.37900  1.0000
  C   C263      1.0  0.70167  0.37166  0.38038  1.0000
  C   C264      1.0  0.67701  0.35496  0.38071  1.0000
  H   H127      1.0  0.72360  0.36474  0.39169  1.0000
  H   H128      1.0  0.68293  0.33720  0.39119  1.0000
  C   C265      1.0  0.64018  0.61681  0.33836  1.0000
  C   C266      1.0  0.66531  0.59986  0.34133  1.0000
  C   C267      1.0  0.69701  0.60755  0.34894  1.0000
  C   C268      1.0  0.64563  0.64220  0.34261  1.0000
  H   H129      1.0  0.66027  0.58178  0.33643  1.0000
  H   H130      1.0  0.61776  0.61040  0.33130  1.0000
  C   C269      1.0  0.86339  0.38720  0.33000  1.0000
  C   C270      1.0  0.83820  0.40411  0.33313  1.0000
  C   C271      1.0  0.80647  0.39634  0.33811  1.0000
  C   C272      1.0  0.85797  0.36179  0.33090  1.0000
  H   H131      1.0  0.84328  0.42223  0.33257  1.0000
  H   H132      1.0  0.88588  0.39369  0.32678  1.0000
  C   C273      1.0  0.59703  0.25775  0.36088  1.0000
  C   C274      1.0  0.60548  0.23308  0.35828  1.0000
  C   C275      1.0  0.63710  0.22592  0.34610  1.0000
  C   C276      1.0  0.61983  0.27639  0.35255  1.0000
  H   H133      1.0  0.58803  0.22040  0.36382  1.0000
  H   H134      1.0  0.57376  0.26187  0.36895  1.0000
  C   C277      1.0  0.90687  0.74628  0.35523  1.0000
  C   C278      1.0  0.89846  0.77094  0.35261  1.0000
  C   C279      1.0  0.86692  0.77814  0.33880  1.0000
  C   C280      1.0  0.88414  0.72765  0.34516  1.0000
  H   H135      1.0  0.91586  0.78361  0.35953  1.0000
  H   H136      1.0  0.93009  0.74213  0.36459  1.0000
  C   C281      1.0  0.89881  0.23298  0.33025  1.0000
  C   C282      1.0  0.90726  0.25765  0.33178  1.0000
  H   H137      1.0  0.91619  0.22032  0.33783  1.0000
  H   H138      1.0  0.93049  0.26178  0.34093  1.0000
  C   C283      1.0  0.60536  0.77106  0.33791  1.0000
  C   C284      1.0  0.59686  0.74641  0.33967  1.0000
  H   H139      1.0  0.58803  0.78374  0.34596  1.0000
  H   H140      1.0  0.57367  0.74229  0.34954  1.0000
  C   C285      1.0  0.53059  0.01475  0.35476  1.0000
  C   C286      1.0  0.53059  0.98919  0.35476  1.0000
  H   H141      1.0  0.55168  0.02340  0.36277  1.0000
  H   H142      1.0  0.55166  0.98053  0.36292  1.0000
  C   C287      1.0  0.72436  0.51480  0.36266  1.0000
  C   C288      1.0  0.72435  0.48924  0.36293  1.0000
  H   H143      1.0  0.70413  0.52351  0.38114  1.0000
  H   H144      1.0  0.70408  0.48060  0.38138  1.0000
