data_image0
_chemical_formula_structural       C3H2C2H2C2H2C3NH2C4HNH2C4HNHC3H2C2H2C2H2C3NH2C4HNH2C4HNHC5H2C3HC3H2C2H2C2H2C5NH3C4NH2C4HNH3C4HNH2C5H2C3HC3H2C2H2C2H2C5NH3C4NH2C4HNH3C4HNH3CH3CHCHNHCNHC2NH2C2HC2NH3CH3CHCHNHCNHC2NH2C2HC2NH2C3HCHCHC3HC2NH2C2HC3HCHCHC3HC2NH2C2HC3HC3H3C3HC3H3C3HC3H3C2H2C2H2C2H2C2H2C2H2C2H2C3NC3NH4C3NC3NH4C3NC3NH4C4HNH2C4HNH2C4HNH2C4HNH2C4HNH2C4HNH2C3HC3H3C3HC3H3C3HC3H3C2H2C2H2C2H2C2H2C2H2C2H2C3NC3NH4C3NC3NH4C3NC3NH4C4HNH2C4HNH2C4HNH2C4HNH2C4HNH2C4HNH2
_chemical_formula_sum              "C288 H216 N48"
_cell_length_a       46.5655
_cell_length_b       46.5655
_cell_length_c       14.7563
_cell_angle_alpha    90
_cell_angle_beta     90
_cell_angle_gamma    120

_space_group_name_H-M_alt    "P 1"
_space_group_IT_number       1

loop_
  _space_group_symop_operation_xyz
  'x, y, z'

loop_
  _atom_site_type_symbol
  _atom_site_label
  _atom_site_symmetry_multiplicity
  _atom_site_fract_x
  _atom_site_fract_y
  _atom_site_fract_z
  _atom_site_occupancy
  C   C1        1.0  0.03059  0.26727  0.35658  1.0000
  C   C2        1.0  0.08512  0.32089  0.37095  1.0000
  C   C3        1.0  0.05037  0.30273  0.35464  1.0000
  H   H1        1.0  0.03937  0.31661  0.34395  1.0000
  H   H2        1.0  0.14941  0.34288  0.39995  1.0000
  C   C4        1.0  0.11401  0.24763  0.28745  1.0000
  C   C5        1.0  0.14359  0.24648  0.27656  1.0000
  H   H3        1.0  0.10417  0.25214  0.23076  1.0000
  H   H4        1.0  0.15382  0.25073  0.21310  1.0000
  C   C6        1.0  0.14222  0.40334  0.27502  1.0000
  C   C7        1.0  0.11243  0.37267  0.28420  1.0000
  H   H5        1.0  0.15066  0.41132  0.21062  1.0000
  H   H6        1.0  0.10110  0.35990  0.22629  1.0000
  C   C8        1.0  0.04974  0.25102  0.36313  1.0000
  C   C9        1.0  0.08441  0.26748  0.38025  1.0000
  C   C10       1.0  0.10202  0.30286  0.38821  1.0000
  N   N1        1.0  0.13528  0.31929  0.40664  1.0000
  H   H7        1.0  0.14610  0.30837  0.43340  1.0000
  H   H8        1.0  0.03832  0.22585  0.35985  1.0000
  C   C11       1.0  0.16329  0.24840  0.35208  1.0000
  C   C12       1.0  0.14912  0.24615  0.43872  1.0000
  C   C13       1.0  0.11886  0.24630  0.45100  1.0000
  C   C14       1.0  0.10202  0.24960  0.37425  1.0000
  H   H9        1.0  0.16327  0.24889  0.49477  1.0000
  N   N2        1.0  0.10860  0.24715  0.53680  1.0000
  H   H10       1.0  0.12019  0.24527  0.58934  1.0000
  H   H11       1.0  0.08790  0.24691  0.54811  1.0000
  C   C15       1.0  0.10265  0.35638  0.36893  1.0000
  C   C16       1.0  0.12113  0.37461  0.44562  1.0000
  C   C17       1.0  0.15220  0.40443  0.43720  1.0000
  C   C18       1.0  0.16409  0.41826  0.34939  1.0000
  H   H12       1.0  0.11504  0.36286  0.50720  1.0000
  N   N3        1.0  0.17092  0.41696  0.51342  1.0000
  H   H13       1.0  0.16265  0.40705  0.57266  1.0000
  C   C19       1.0  0.03059  0.76727  0.35658  1.0000
  C   C20       1.0  0.08512  0.82089  0.37095  1.0000
  C   C21       1.0  0.05037  0.80273  0.35464  1.0000
  H   H14       1.0  0.03937  0.81661  0.34395  1.0000
  H   H15       1.0  0.14942  0.84288  0.39995  1.0000
  C   C22       1.0  0.11401  0.74764  0.28745  1.0000
  C   C23       1.0  0.14359  0.74648  0.27656  1.0000
  H   H16       1.0  0.10417  0.75214  0.23076  1.0000
  H   H17       1.0  0.15382  0.75073  0.21310  1.0000
  C   C24       1.0  0.14222  0.90334  0.27502  1.0000
  C   C25       1.0  0.11244  0.87268  0.28420  1.0000
  H   H18       1.0  0.15066  0.91132  0.21062  1.0000
  H   H19       1.0  0.10110  0.85990  0.22629  1.0000
  C   C26       1.0  0.04974  0.75102  0.36313  1.0000
  C   C27       1.0  0.08441  0.76748  0.38025  1.0000
  C   C28       1.0  0.10202  0.80286  0.38821  1.0000
  N   N4        1.0  0.13528  0.81929  0.40664  1.0000
  H   H20       1.0  0.14610  0.80837  0.43340  1.0000
  H   H21       1.0  0.03832  0.72585  0.35985  1.0000
  C   C29       1.0  0.16329  0.74840  0.35208  1.0000
  C   C30       1.0  0.14913  0.74615  0.43872  1.0000
  C   C31       1.0  0.11886  0.74630  0.45100  1.0000
  C   C32       1.0  0.10202  0.74960  0.37425  1.0000
  H   H22       1.0  0.16327  0.74889  0.49477  1.0000
  N   N5        1.0  0.10860  0.74715  0.53680  1.0000
  H   H23       1.0  0.12019  0.74528  0.58934  1.0000
  H   H24       1.0  0.08790  0.74691  0.54811  1.0000
  C   C33       1.0  0.10265  0.85638  0.36893  1.0000
  C   C34       1.0  0.12114  0.87462  0.44562  1.0000
  C   C35       1.0  0.15220  0.90443  0.43719  1.0000
  C   C36       1.0  0.16409  0.91826  0.34939  1.0000
  H   H25       1.0  0.11504  0.86287  0.50720  1.0000
  N   N6        1.0  0.17092  0.91696  0.51342  1.0000
  H   H26       1.0  0.16265  0.90705  0.57266  1.0000
  C   C37       1.0  0.27169  0.24946  0.35564  1.0000
  C   C38       1.0  0.30724  0.26604  0.35291  1.0000
  C   C39       1.0  0.25302  0.26693  0.35540  1.0000
  C   C40       1.0  0.19867  0.26660  0.34495  1.0000
  C   C41       1.0  0.21747  0.25033  0.35296  1.0000
  H   H27       1.0  0.20392  0.22515  0.35422  1.0000
  H   H28       1.0  0.17682  0.30811  0.30962  1.0000
  C   C42       1.0  0.27166  0.02634  0.34938  1.0000
  C   C43       1.0  0.25599  0.04604  0.34506  1.0000
  C   C44       1.0  0.27291  0.08036  0.32382  1.0000
  H   H29       1.0  0.23100  0.03531  0.35321  1.0000
  C   C45       1.0  0.25318  0.49029  0.34945  1.0000
  C   C46       1.0  0.25182  0.43623  0.32357  1.0000
  C   C47       1.0  0.26883  0.47058  0.34449  1.0000
  H   H30       1.0  0.29383  0.48130  0.35226  1.0000
  H   H31       1.0  0.21314  0.38046  0.24051  1.0000
  C   C48       1.0  0.27605  0.37276  0.27566  1.0000
  C   C49       1.0  0.27587  0.40286  0.26553  1.0000
  H   H32       1.0  0.27702  0.36108  0.21786  1.0000
  H   H33       1.0  0.27674  0.41152  0.20122  1.0000
  C   C50       1.0  0.24846  0.14366  0.27648  1.0000
  C   C51       1.0  0.24873  0.11362  0.26612  1.0000
  H   H34       1.0  0.24767  0.15543  0.21868  1.0000
  H   H35       1.0  0.24801  0.10503  0.20181  1.0000
  C   C52       1.0  0.27347  0.19620  0.35664  1.0000
  C   C53       1.0  0.25612  0.21402  0.35809  1.0000
  C   C54       1.0  0.26857  0.30237  0.35728  1.0000
  C   C55       1.0  0.25120  0.32017  0.35508  1.0000
  C   C56       1.0  0.21599  0.30200  0.34467  1.0000
  N   N7        1.0  0.19894  0.31854  0.33371  1.0000
  H   H36       1.0  0.20911  0.34205  0.34097  1.0000
  H   H37       1.0  0.23106  0.19986  0.36364  1.0000
  H   H38       1.0  0.29363  0.31655  0.36292  1.0000
  C   C57       1.0  0.30714  0.04550  0.35035  1.0000
  C   C58       1.0  0.21770  0.47114  0.35117  1.0000
  C   C59       1.0  0.19907  0.43658  0.33271  1.0000
  C   C60       1.0  0.21679  0.41990  0.30956  1.0000
  N   N8        1.0  0.20086  0.38862  0.27409  1.0000
  H   H39       1.0  0.17735  0.37635  0.26297  1.0000
  H   H40       1.0  0.20421  0.48231  0.36554  1.0000
  C   C61       1.0  0.26762  0.41707  0.33860  1.0000
  C   C62       1.0  0.26331  0.40170  0.42429  1.0000
  C   C63       1.0  0.26382  0.37163  0.43605  1.0000
  C   C64       1.0  0.26865  0.35562  0.35963  1.0000
  H   H41       1.0  0.25595  0.41056  0.47775  1.0000
  N   N9        1.0  0.25652  0.35703  0.51924  1.0000
  H   H42       1.0  0.25302  0.36774  0.57135  1.0000
  H   H43       1.0  0.25722  0.33684  0.53083  1.0000
  H   H44       1.0  0.19224  0.43728  0.51237  1.0000
  C   C65       1.0  0.25709  0.09949  0.33916  1.0000
  C   C66       1.0  0.26119  0.11462  0.42512  1.0000
  C   C67       1.0  0.26070  0.14470  0.43701  1.0000
  C   C68       1.0  0.25595  0.16073  0.36049  1.0000
  H   H45       1.0  0.26865  0.10578  0.47840  1.0000
  N   N10       1.0  0.26792  0.15920  0.52034  1.0000
  H   H46       1.0  0.27132  0.14841  0.57242  1.0000
  H   H47       1.0  0.26719  0.17937  0.53205  1.0000
  C   C69       1.0  0.27169  0.74946  0.35564  1.0000
  C   C70       1.0  0.30724  0.76604  0.35291  1.0000
  C   C71       1.0  0.25302  0.76693  0.35540  1.0000
  C   C72       1.0  0.19867  0.76660  0.34495  1.0000
  C   C73       1.0  0.21747  0.75033  0.35296  1.0000
  H   H48       1.0  0.20392  0.72515  0.35422  1.0000
  H   H49       1.0  0.17682  0.80811  0.30962  1.0000
  C   C74       1.0  0.27166  0.52634  0.34938  1.0000
  C   C75       1.0  0.25599  0.54604  0.34506  1.0000
  C   C76       1.0  0.27291  0.58035  0.32382  1.0000
  H   H50       1.0  0.23100  0.53532  0.35321  1.0000
  C   C77       1.0  0.25318  0.99028  0.34945  1.0000
  C   C78       1.0  0.25182  0.93624  0.32357  1.0000
  C   C79       1.0  0.26883  0.97058  0.34449  1.0000
  H   H51       1.0  0.29383  0.98130  0.35226  1.0000
  H   H52       1.0  0.21314  0.88046  0.24051  1.0000
  C   C80       1.0  0.27605  0.87276  0.27566  1.0000
  C   C81       1.0  0.27587  0.90287  0.26553  1.0000
  H   H53       1.0  0.27702  0.86109  0.21786  1.0000
  H   H54       1.0  0.27674  0.91152  0.20122  1.0000
  C   C82       1.0  0.24846  0.64366  0.27648  1.0000
  C   C83       1.0  0.24873  0.61362  0.26612  1.0000
  H   H55       1.0  0.24767  0.65544  0.21868  1.0000
  H   H56       1.0  0.24801  0.60503  0.20181  1.0000
  C   C84       1.0  0.27347  0.69620  0.35664  1.0000
  C   C85       1.0  0.25612  0.71402  0.35809  1.0000
  C   C86       1.0  0.26857  0.80237  0.35728  1.0000
  C   C87       1.0  0.25120  0.82017  0.35508  1.0000
  C   C88       1.0  0.21600  0.80200  0.34467  1.0000
  N   N11       1.0  0.19894  0.81854  0.33372  1.0000
  H   H57       1.0  0.20912  0.84205  0.34098  1.0000
  H   H58       1.0  0.23106  0.69986  0.36364  1.0000
  H   H59       1.0  0.29363  0.81655  0.36292  1.0000
  C   C89       1.0  0.30714  0.54550  0.35035  1.0000
  C   C90       1.0  0.21770  0.97114  0.35117  1.0000
  C   C91       1.0  0.19907  0.93658  0.33271  1.0000
  C   C92       1.0  0.21679  0.91990  0.30956  1.0000
  N   N12       1.0  0.20087  0.88862  0.27409  1.0000
  H   H60       1.0  0.17735  0.87635  0.26297  1.0000
  H   H61       1.0  0.20421  0.98231  0.36554  1.0000
  C   C93       1.0  0.26762  0.91707  0.33860  1.0000
  C   C94       1.0  0.26331  0.90170  0.42429  1.0000
  C   C95       1.0  0.26382  0.87163  0.43605  1.0000
  C   C96       1.0  0.26865  0.85562  0.35963  1.0000
  H   H62       1.0  0.25595  0.91056  0.47775  1.0000
  N   N13       1.0  0.25652  0.85703  0.51924  1.0000
  H   H63       1.0  0.25302  0.86774  0.57135  1.0000
  H   H64       1.0  0.25722  0.83684  0.53083  1.0000
  H   H65       1.0  0.19224  0.93728  0.51237  1.0000
  C   C97       1.0  0.25710  0.59949  0.33916  1.0000
  C   C98       1.0  0.26119  0.61462  0.42512  1.0000
  C   C99       1.0  0.26070  0.64470  0.43701  1.0000
  C   C100      1.0  0.25595  0.66073  0.36050  1.0000
  H   H66       1.0  0.26865  0.60579  0.47840  1.0000
  N   N14       1.0  0.26792  0.65920  0.52034  1.0000
  H   H67       1.0  0.27132  0.64841  0.57242  1.0000
  H   H68       1.0  0.26719  0.67937  0.53205  1.0000
  H   H69       1.0  0.37553  0.17373  0.39818  1.0000
  C   C101      1.0  0.32601  0.24974  0.34532  1.0000
  H   H70       1.0  0.32079  0.29123  0.35356  1.0000
  H   H71       1.0  0.34761  0.20806  0.30994  1.0000
  H   H72       1.0  0.31141  0.13629  0.24081  1.0000
  C   C102      1.0  0.38093  0.26963  0.27615  1.0000
  H   H73       1.0  0.37067  0.26530  0.21272  1.0000
  C   C103      1.0  0.38251  0.11346  0.27353  1.0000
  H   H74       1.0  0.37398  0.10537  0.20925  1.0000
  N   N15       1.0  0.38967  0.19732  0.40493  1.0000
  H   H75       1.0  0.37895  0.20820  0.43249  1.0000
  C   C104      1.0  0.30866  0.21433  0.34587  1.0000
  N   N16       1.0  0.32567  0.19774  0.33521  1.0000
  H   H76       1.0  0.31557  0.17427  0.34337  1.0000
  C   C105      1.0  0.30791  0.09671  0.30910  1.0000
  C   C106      1.0  0.32570  0.08005  0.33174  1.0000
  N   N17       1.0  0.32373  0.12798  0.27348  1.0000
  H   H77       1.0  0.34722  0.14022  0.26192  1.0000
  H   H78       1.0  0.32067  0.03434  0.36432  1.0000
  C   C107      1.0  0.36143  0.26792  0.35186  1.0000
  C   C108      1.0  0.37570  0.27023  0.43835  1.0000
  H   H79       1.0  0.36169  0.26769  0.49458  1.0000
  C   C109      1.0  0.37278  0.11224  0.43574  1.0000
  C   C110      1.0  0.36070  0.09840  0.34800  1.0000
  N   N18       1.0  0.35418  0.09970  0.51216  1.0000
  H   H80       1.0  0.36252  0.10961  0.57135  1.0000
  H   H81       1.0  0.33284  0.07940  0.51126  1.0000
  H   H82       1.0  0.37553  0.67373  0.39818  1.0000
  C   C111      1.0  0.32601  0.74974  0.34532  1.0000
  H   H83       1.0  0.32079  0.79123  0.35356  1.0000
  H   H84       1.0  0.34761  0.70806  0.30994  1.0000
  H   H85       1.0  0.31142  0.63629  0.24081  1.0000
  C   C112      1.0  0.38094  0.76963  0.27615  1.0000
  H   H86       1.0  0.37067  0.76530  0.21272  1.0000
  C   C113      1.0  0.38251  0.61346  0.27353  1.0000
  H   H87       1.0  0.37398  0.60537  0.20925  1.0000
  N   N19       1.0  0.38967  0.69732  0.40493  1.0000
  H   H88       1.0  0.37895  0.70820  0.43249  1.0000
  C   C114      1.0  0.30866  0.71433  0.34587  1.0000
  N   N20       1.0  0.32567  0.69774  0.33521  1.0000
  H   H89       1.0  0.31557  0.67427  0.34337  1.0000
  C   C115      1.0  0.30791  0.59671  0.30910  1.0000
  C   C116      1.0  0.32571  0.58005  0.33174  1.0000
  N   N21       1.0  0.32373  0.62798  0.27348  1.0000
  H   H90       1.0  0.34722  0.64022  0.26192  1.0000
  H   H91       1.0  0.32067  0.53434  0.36432  1.0000
  C   C117      1.0  0.36143  0.76792  0.35186  1.0000
  C   C118      1.0  0.37570  0.77023  0.43835  1.0000
  H   H92       1.0  0.36169  0.76769  0.49458  1.0000
  C   C119      1.0  0.37278  0.61224  0.43574  1.0000
  C   C120      1.0  0.36070  0.59840  0.34800  1.0000
  N   N22       1.0  0.35418  0.59970  0.51216  1.0000
  H   H93       1.0  0.36252  0.60962  0.57135  1.0000
  H   H94       1.0  0.33284  0.57940  0.51126  1.0000
  C   C121      1.0  0.49441  0.24941  0.35624  1.0000
  C   C122      1.0  0.47464  0.21395  0.35374  1.0000
  C   C123      1.0  0.43985  0.19575  0.36934  1.0000
  H   H95       1.0  0.48567  0.20009  0.34310  1.0000
  C   C124      1.0  0.41055  0.26852  0.28682  1.0000
  H   H96       1.0  0.42044  0.26409  0.23010  1.0000
  C   C125      1.0  0.41237  0.14406  0.28254  1.0000
  H   H97       1.0  0.42365  0.15677  0.22449  1.0000
  C   C126      1.0  0.42293  0.21375  0.38663  1.0000
  C   C127      1.0  0.44052  0.24914  0.37906  1.0000
  C   C128      1.0  0.47524  0.26565  0.36270  1.0000
  H   H98       1.0  0.48668  0.29083  0.35991  1.0000
  C   C129      1.0  0.40609  0.27031  0.45035  1.0000
  C   C130      1.0  0.42293  0.26705  0.37356  1.0000
  N   N23       1.0  0.41656  0.26964  0.53601  1.0000
  H   H99       1.0  0.40499  0.27147  0.58869  1.0000
  H   H100      1.0  0.43733  0.27002  0.54708  1.0000
  C   C131      1.0  0.42233  0.16026  0.36733  1.0000
  C   C132      1.0  0.40385  0.14205  0.44399  1.0000
  H   H101      1.0  0.41013  0.15372  0.50569  1.0000
  C   C133      1.0  0.49441  0.74941  0.35624  1.0000
  C   C134      1.0  0.47465  0.71395  0.35374  1.0000
  C   C135      1.0  0.43985  0.69575  0.36934  1.0000
  H   H102      1.0  0.48567  0.70009  0.34310  1.0000
  C   C136      1.0  0.41055  0.76852  0.28682  1.0000
  H   H103      1.0  0.42044  0.76409  0.23010  1.0000
  C   C137      1.0  0.41237  0.64406  0.28254  1.0000
  H   H104      1.0  0.42365  0.65677  0.22449  1.0000
  C   C138      1.0  0.42293  0.71375  0.38663  1.0000
  C   C139      1.0  0.44052  0.74914  0.37906  1.0000
  C   C140      1.0  0.47524  0.76565  0.36270  1.0000
  H   H105      1.0  0.48668  0.79083  0.35991  1.0000
  C   C141      1.0  0.40609  0.77031  0.45035  1.0000
  C   C142      1.0  0.42293  0.76705  0.37356  1.0000
  N   N24       1.0  0.41656  0.76964  0.53601  1.0000
  H   H106      1.0  0.40499  0.77147  0.58869  1.0000
  H   H107      1.0  0.43733  0.77002  0.54708  1.0000
  C   C143      1.0  0.42233  0.66026  0.36733  1.0000
  C   C144      1.0  0.40385  0.64205  0.44399  1.0000
  H   H108      1.0  0.41013  0.65372  0.50569  1.0000
  C   C145      1.0  0.99441  0.24941  0.35624  1.0000
  C   C146      1.0  0.97465  0.21395  0.35374  1.0000
  C   C147      1.0  0.93985  0.19575  0.36934  1.0000
  H   H109      1.0  0.98567  0.20009  0.34310  1.0000
  C   C148      1.0  0.53059  0.26727  0.35658  1.0000
  C   C149      1.0  0.58512  0.32089  0.37095  1.0000
  C   C150      1.0  0.55037  0.30273  0.35464  1.0000
  H   H110      1.0  0.53937  0.31661  0.34395  1.0000
  H   H111      1.0  0.64941  0.34288  0.39995  1.0000
  H   H112      1.0  0.87553  0.17373  0.39818  1.0000
  C   C151      1.0  0.77169  0.24946  0.35564  1.0000
  C   C152      1.0  0.80724  0.26604  0.35291  1.0000
  C   C153      1.0  0.82601  0.24974  0.34532  1.0000
  H   H113      1.0  0.82079  0.29123  0.35356  1.0000
  C   C154      1.0  0.75302  0.26693  0.35540  1.0000
  C   C155      1.0  0.69867  0.26660  0.34495  1.0000
  C   C156      1.0  0.71747  0.25033  0.35296  1.0000
  H   H114      1.0  0.70392  0.22515  0.35422  1.0000
  H   H115      1.0  0.67682  0.30811  0.30962  1.0000
  H   H116      1.0  0.84761  0.20806  0.30994  1.0000
  C   C157      1.0  0.77166  0.02634  0.34938  1.0000
  C   C158      1.0  0.75599  0.04604  0.34506  1.0000
  C   C159      1.0  0.77291  0.08036  0.32382  1.0000
  H   H117      1.0  0.73100  0.03531  0.35321  1.0000
  C   C160      1.0  0.75318  0.49029  0.34945  1.0000
  C   C161      1.0  0.75182  0.43623  0.32357  1.0000
  C   C162      1.0  0.76883  0.47058  0.34449  1.0000
  H   H118      1.0  0.79383  0.48130  0.35226  1.0000
  H   H119      1.0  0.71314  0.38046  0.24051  1.0000
  H   H120      1.0  0.81142  0.13629  0.24081  1.0000
  C   C163      1.0  0.61401  0.24763  0.28745  1.0000
  C   C164      1.0  0.64359  0.24648  0.27656  1.0000
  H   H121      1.0  0.60416  0.25214  0.23076  1.0000
  H   H122      1.0  0.65382  0.25073  0.21310  1.0000
  C   C165      1.0  0.77605  0.37276  0.27566  1.0000
  C   C166      1.0  0.77587  0.40286  0.26553  1.0000
  H   H123      1.0  0.77702  0.36108  0.21786  1.0000
  H   H124      1.0  0.77674  0.41152  0.20122  1.0000
  C   C167      1.0  0.64222  0.40334  0.27502  1.0000
  C   C168      1.0  0.61243  0.37267  0.28420  1.0000
  H   H125      1.0  0.65066  0.41132  0.21062  1.0000
  H   H126      1.0  0.60110  0.35990  0.22629  1.0000
  C   C169      1.0  0.91055  0.26852  0.28682  1.0000
  C   C170      1.0  0.88093  0.26963  0.27615  1.0000
  H   H127      1.0  0.92044  0.26409  0.23010  1.0000
  H   H128      1.0  0.87067  0.26530  0.21272  1.0000
  C   C171      1.0  0.74846  0.14366  0.27648  1.0000
  C   C172      1.0  0.74873  0.11362  0.26612  1.0000
  H   H129      1.0  0.74767  0.15543  0.21868  1.0000
  H   H130      1.0  0.74801  0.10503  0.20181  1.0000
  C   C173      1.0  0.88251  0.11346  0.27353  1.0000
  C   C174      1.0  0.91237  0.14406  0.28254  1.0000
  H   H131      1.0  0.87398  0.10537  0.20925  1.0000
  H   H132      1.0  0.92365  0.15677  0.22449  1.0000
  C   C175      1.0  0.92293  0.21375  0.38663  1.0000
  C   C176      1.0  0.94052  0.24914  0.37906  1.0000
  C   C177      1.0  0.97525  0.26565  0.36270  1.0000
  N   N25       1.0  0.88967  0.19732  0.40493  1.0000
  C   C178      1.0  0.54974  0.25102  0.36313  1.0000
  C   C179      1.0  0.58441  0.26748  0.38025  1.0000
  C   C180      1.0  0.60202  0.30286  0.38821  1.0000
  N   N26       1.0  0.63528  0.31929  0.40664  1.0000
  H   H133      1.0  0.64610  0.30837  0.43340  1.0000
  H   H134      1.0  0.87895  0.20820  0.43249  1.0000
  H   H135      1.0  0.98668  0.29083  0.35991  1.0000
  H   H136      1.0  0.53832  0.22585  0.35985  1.0000
  C   C181      1.0  0.80866  0.21433  0.34587  1.0000
  C   C182      1.0  0.77347  0.19620  0.35664  1.0000
  C   C183      1.0  0.75612  0.21402  0.35809  1.0000
  N   N27       1.0  0.82567  0.19774  0.33521  1.0000
  C   C184      1.0  0.76857  0.30237  0.35728  1.0000
  C   C185      1.0  0.75120  0.32017  0.35508  1.0000
  C   C186      1.0  0.71599  0.30200  0.34467  1.0000
  N   N28       1.0  0.69894  0.31854  0.33371  1.0000
  H   H137      1.0  0.70912  0.34205  0.34097  1.0000
  H   H138      1.0  0.81557  0.17427  0.34337  1.0000
  H   H139      1.0  0.73106  0.19986  0.36364  1.0000
  H   H140      1.0  0.79363  0.31655  0.36292  1.0000
  C   C187      1.0  0.80791  0.09671  0.30910  1.0000
  C   C188      1.0  0.82571  0.08005  0.33174  1.0000
  C   C189      1.0  0.80714  0.04550  0.35035  1.0000
  N   N29       1.0  0.82373  0.12798  0.27348  1.0000
  C   C190      1.0  0.71770  0.47114  0.35117  1.0000
  C   C191      1.0  0.69907  0.43658  0.33271  1.0000
  C   C192      1.0  0.71679  0.41990  0.30956  1.0000
  N   N30       1.0  0.70086  0.38862  0.27409  1.0000
  H   H141      1.0  0.67734  0.37635  0.26297  1.0000
  H   H142      1.0  0.84722  0.14022  0.26192  1.0000
  H   H143      1.0  0.82067  0.03434  0.36432  1.0000
  H   H144      1.0  0.70421  0.48231  0.36554  1.0000
  C   C193      1.0  0.66329  0.24840  0.35208  1.0000
  C   C194      1.0  0.64912  0.24615  0.43872  1.0000
  C   C195      1.0  0.61886  0.24630  0.45100  1.0000
  C   C196      1.0  0.60202  0.24960  0.37425  1.0000
  H   H145      1.0  0.66327  0.24889  0.49477  1.0000
  N   N31       1.0  0.60860  0.24715  0.53680  1.0000
  H   H146      1.0  0.62019  0.24527  0.58934  1.0000
  H   H147      1.0  0.58790  0.24691  0.54811  1.0000
  C   C197      1.0  0.76762  0.41707  0.33860  1.0000
  C   C198      1.0  0.76331  0.40170  0.42429  1.0000
  C   C199      1.0  0.76382  0.37163  0.43605  1.0000
  C   C200      1.0  0.76865  0.35562  0.35963  1.0000
  H   H148      1.0  0.75595  0.41056  0.47775  1.0000
  N   N32       1.0  0.75652  0.35703  0.51924  1.0000
  H   H149      1.0  0.75302  0.36774  0.57135  1.0000
  H   H150      1.0  0.75722  0.33684  0.53083  1.0000
  C   C201      1.0  0.60265  0.35638  0.36893  1.0000
  C   C202      1.0  0.62113  0.37461  0.44562  1.0000
  C   C203      1.0  0.65220  0.40443  0.43720  1.0000
  C   C204      1.0  0.66409  0.41826  0.34939  1.0000
  H   H151      1.0  0.61504  0.36286  0.50720  1.0000
  N   N33       1.0  0.67092  0.41696  0.51342  1.0000
  H   H152      1.0  0.66265  0.40705  0.57266  1.0000
  H   H153      1.0  0.69224  0.43728  0.51237  1.0000
  C   C205      1.0  0.86143  0.26792  0.35186  1.0000
  C   C206      1.0  0.87570  0.27023  0.43835  1.0000
  C   C207      1.0  0.90609  0.27031  0.45035  1.0000
  C   C208      1.0  0.92293  0.26705  0.37356  1.0000
  H   H154      1.0  0.86169  0.26769  0.49458  1.0000
  N   N34       1.0  0.91656  0.26964  0.53601  1.0000
  H   H155      1.0  0.90499  0.27147  0.58869  1.0000
  H   H156      1.0  0.93733  0.27002  0.54708  1.0000
  C   C209      1.0  0.75709  0.09949  0.33916  1.0000
  C   C210      1.0  0.76119  0.11462  0.42512  1.0000
  C   C211      1.0  0.76070  0.14470  0.43701  1.0000
  C   C212      1.0  0.75595  0.16073  0.36049  1.0000
  H   H157      1.0  0.76865  0.10578  0.47840  1.0000
  N   N35       1.0  0.76792  0.15920  0.52034  1.0000
  H   H158      1.0  0.77132  0.14841  0.57242  1.0000
  H   H159      1.0  0.76719  0.17937  0.53205  1.0000
  C   C213      1.0  0.92233  0.16026  0.36733  1.0000
  C   C214      1.0  0.90385  0.14205  0.44399  1.0000
  C   C215      1.0  0.87278  0.11224  0.43574  1.0000
  C   C216      1.0  0.86070  0.09840  0.34800  1.0000
  H   H160      1.0  0.91013  0.15372  0.50569  1.0000
  N   N36       1.0  0.85418  0.09970  0.51216  1.0000
  H   H161      1.0  0.86252  0.10961  0.57135  1.0000
  H   H162      1.0  0.83284  0.07940  0.51126  1.0000
  C   C217      1.0  0.99442  0.74941  0.35624  1.0000
  C   C218      1.0  0.97465  0.71395  0.35374  1.0000
  C   C219      1.0  0.93985  0.69575  0.36934  1.0000
  H   H163      1.0  0.98567  0.70009  0.34310  1.0000
  C   C220      1.0  0.53059  0.76727  0.35658  1.0000
  C   C221      1.0  0.58512  0.82089  0.37095  1.0000
  C   C222      1.0  0.55037  0.80273  0.35464  1.0000
  H   H164      1.0  0.53937  0.81661  0.34395  1.0000
  H   H165      1.0  0.64942  0.84288  0.39995  1.0000
  H   H166      1.0  0.87553  0.67373  0.39818  1.0000
  C   C223      1.0  0.77169  0.74946  0.35564  1.0000
  C   C224      1.0  0.80724  0.76604  0.35291  1.0000
  C   C225      1.0  0.82602  0.74974  0.34532  1.0000
  H   H167      1.0  0.82079  0.79123  0.35356  1.0000
  C   C226      1.0  0.75302  0.76693  0.35540  1.0000
  C   C227      1.0  0.69867  0.76660  0.34495  1.0000
  C   C228      1.0  0.71747  0.75033  0.35296  1.0000
  H   H168      1.0  0.70392  0.72515  0.35422  1.0000
  H   H169      1.0  0.67682  0.80811  0.30962  1.0000
  H   H170      1.0  0.84761  0.70806  0.30994  1.0000
  C   C229      1.0  0.77166  0.52634  0.34938  1.0000
  C   C230      1.0  0.75599  0.54604  0.34506  1.0000
  C   C231      1.0  0.77291  0.58035  0.32382  1.0000
  H   H171      1.0  0.73100  0.53532  0.35321  1.0000
  C   C232      1.0  0.75318  0.99028  0.34945  1.0000
  C   C233      1.0  0.75182  0.93624  0.32357  1.0000
  C   C234      1.0  0.76883  0.97058  0.34449  1.0000
  H   H172      1.0  0.79383  0.98130  0.35226  1.0000
  H   H173      1.0  0.71314  0.88046  0.24051  1.0000
  H   H174      1.0  0.81142  0.63629  0.24081  1.0000
  C   C235      1.0  0.61401  0.74764  0.28745  1.0000
  C   C236      1.0  0.64359  0.74648  0.27656  1.0000
  H   H175      1.0  0.60416  0.75214  0.23076  1.0000
  H   H176      1.0  0.65382  0.75073  0.21310  1.0000
  C   C237      1.0  0.77605  0.87276  0.27566  1.0000
  C   C238      1.0  0.77587  0.90287  0.26553  1.0000
  H   H177      1.0  0.77702  0.86109  0.21786  1.0000
  H   H178      1.0  0.77674  0.91152  0.20122  1.0000
  C   C239      1.0  0.64222  0.90334  0.27502  1.0000
  C   C240      1.0  0.61243  0.87268  0.28420  1.0000
  H   H179      1.0  0.65066  0.91132  0.21062  1.0000
  H   H180      1.0  0.60110  0.85990  0.22629  1.0000
  C   C241      1.0  0.91055  0.76852  0.28682  1.0000
  C   C242      1.0  0.88094  0.76963  0.27615  1.0000
  H   H181      1.0  0.92044  0.76409  0.23010  1.0000
  H   H182      1.0  0.87067  0.76530  0.21272  1.0000
  C   C243      1.0  0.74846  0.64366  0.27648  1.0000
  C   C244      1.0  0.74873  0.61362  0.26612  1.0000
  H   H183      1.0  0.74767  0.65544  0.21868  1.0000
  H   H184      1.0  0.74801  0.60503  0.20181  1.0000
  C   C245      1.0  0.88251  0.61346  0.27353  1.0000
  C   C246      1.0  0.91237  0.64406  0.28254  1.0000
  H   H185      1.0  0.87398  0.60537  0.20925  1.0000
  H   H186      1.0  0.92365  0.65677  0.22449  1.0000
  C   C247      1.0  0.92293  0.71375  0.38663  1.0000
  C   C248      1.0  0.94052  0.74914  0.37906  1.0000
  C   C249      1.0  0.97525  0.76565  0.36270  1.0000
  N   N37       1.0  0.88967  0.69732  0.40493  1.0000
  C   C250      1.0  0.54974  0.75102  0.36313  1.0000
  C   C251      1.0  0.58441  0.76748  0.38025  1.0000
  C   C252      1.0  0.60202  0.80286  0.38821  1.0000
  N   N38       1.0  0.63528  0.81929  0.40664  1.0000
  H   H187      1.0  0.64610  0.80837  0.43340  1.0000
  H   H188      1.0  0.87895  0.70820  0.43249  1.0000
  H   H189      1.0  0.98668  0.79083  0.35991  1.0000
  H   H190      1.0  0.53832  0.72585  0.35985  1.0000
  C   C253      1.0  0.80866  0.71433  0.34587  1.0000
  C   C254      1.0  0.77347  0.69620  0.35664  1.0000
  C   C255      1.0  0.75612  0.71402  0.35809  1.0000
  N   N39       1.0  0.82567  0.69774  0.33521  1.0000
  C   C256      1.0  0.76857  0.80237  0.35728  1.0000
  C   C257      1.0  0.75120  0.82017  0.35508  1.0000
  C   C258      1.0  0.71600  0.80200  0.34467  1.0000
  N   N40       1.0  0.69894  0.81854  0.33372  1.0000
  H   H191      1.0  0.70912  0.84205  0.34098  1.0000
  H   H192      1.0  0.81557  0.67427  0.34337  1.0000
  H   H193      1.0  0.73106  0.69986  0.36364  1.0000
  H   H194      1.0  0.79363  0.81655  0.36292  1.0000
  C   C259      1.0  0.80791  0.59671  0.30910  1.0000
  C   C260      1.0  0.82571  0.58005  0.33174  1.0000
  C   C261      1.0  0.80714  0.54550  0.35035  1.0000
  N   N41       1.0  0.82373  0.62798  0.27348  1.0000
  C   C262      1.0  0.71770  0.97114  0.35117  1.0000
  C   C263      1.0  0.69907  0.93658  0.33271  1.0000
  C   C264      1.0  0.71679  0.91990  0.30956  1.0000
  N   N42       1.0  0.70087  0.88862  0.27409  1.0000
  H   H195      1.0  0.67734  0.87635  0.26297  1.0000
  H   H196      1.0  0.84722  0.64022  0.26192  1.0000
  H   H197      1.0  0.82067  0.53434  0.36432  1.0000
  H   H198      1.0  0.70421  0.98231  0.36554  1.0000
  C   C265      1.0  0.66329  0.74840  0.35208  1.0000
  C   C266      1.0  0.64912  0.74615  0.43872  1.0000
  C   C267      1.0  0.61886  0.74630  0.45100  1.0000
  C   C268      1.0  0.60202  0.74960  0.37425  1.0000
  H   H199      1.0  0.66327  0.74889  0.49477  1.0000
  N   N43       1.0  0.60860  0.74715  0.53680  1.0000
  H   H200      1.0  0.62019  0.74528  0.58934  1.0000
  H   H201      1.0  0.58790  0.74691  0.54811  1.0000
  C   C269      1.0  0.76762  0.91707  0.33860  1.0000
  C   C270      1.0  0.76331  0.90170  0.42429  1.0000
  C   C271      1.0  0.76382  0.87163  0.43605  1.0000
  C   C272      1.0  0.76865  0.85562  0.35963  1.0000
  H   H202      1.0  0.75596  0.91056  0.47775  1.0000
  N   N44       1.0  0.75652  0.85703  0.51924  1.0000
  H   H203      1.0  0.75302  0.86774  0.57135  1.0000
  H   H204      1.0  0.75722  0.83684  0.53083  1.0000
  C   C273      1.0  0.60265  0.85638  0.36893  1.0000
  C   C274      1.0  0.62113  0.87462  0.44562  1.0000
  C   C275      1.0  0.65220  0.90443  0.43719  1.0000
  C   C276      1.0  0.66409  0.91826  0.34939  1.0000
  H   H205      1.0  0.61504  0.86287  0.50720  1.0000
  N   N45       1.0  0.67092  0.91696  0.51342  1.0000
  H   H206      1.0  0.66265  0.90705  0.57266  1.0000
  H   H207      1.0  0.69224  0.93728  0.51237  1.0000
  C   C277      1.0  0.86143  0.76792  0.35186  1.0000
  C   C278      1.0  0.87570  0.77023  0.43835  1.0000
  C   C279      1.0  0.90609  0.77031  0.45035  1.0000
  C   C280      1.0  0.92293  0.76705  0.37356  1.0000
  H   H208      1.0  0.86169  0.76769  0.49458  1.0000
  N   N46       1.0  0.91656  0.76964  0.53601  1.0000
  H   H209      1.0  0.90499  0.77147  0.58869  1.0000
  H   H210      1.0  0.93733  0.77002  0.54708  1.0000
  C   C281      1.0  0.75710  0.59949  0.33916  1.0000
  C   C282      1.0  0.76119  0.61462  0.42512  1.0000
  C   C283      1.0  0.76070  0.64470  0.43701  1.0000
  C   C284      1.0  0.75595  0.66073  0.36050  1.0000
  H   H211      1.0  0.76865  0.60579  0.47840  1.0000
  N   N47       1.0  0.76792  0.65920  0.52034  1.0000
  H   H212      1.0  0.77132  0.64841  0.57242  1.0000
  H   H213      1.0  0.76719  0.67937  0.53205  1.0000
  C   C285      1.0  0.92233  0.66026  0.36733  1.0000
  C   C286      1.0  0.90385  0.64205  0.44399  1.0000
  C   C287      1.0  0.87277  0.61224  0.43574  1.0000
  C   C288      1.0  0.86070  0.59840  0.34800  1.0000
  H   H214      1.0  0.91013  0.65372  0.50569  1.0000
  N   N48       1.0  0.85418  0.59970  0.51216  1.0000
  H   H215      1.0  0.86252  0.60962  0.57135  1.0000
  H   H216      1.0  0.83284  0.57940  0.51126  1.0000
