data_image0
_chemical_formula_structural       C4HC4H2NO2C4HC4H2NO2C4HC4H2NO2C4HC4H2NO2C4H4C4H4C4H4C4H4C4H4C4H4C4H4C4H4C4HC4H2NO2C4HC4H2NO2C4HC4H2NO2C4HC4H2NO2C4HC4H2NO2C4HC4H2NO2C4HC4H2NO2C4HC4H2NO2C4H4C4H4C4H4C4H4C4H4C4H4C4H4C4H4C4H4C4H4CNCNCNCNCNCNCNCNCNCNCNCNCNCNCNCNCNCNCNCNCNCNCNCNCNCNCNCNCNCNCNCNCNCNCNCNCNCNCNCNCNCNCNCNCNCNCNCNCNCNCNCNCNCNCNCNCNCNCNCNC4H4C4H4C4H4C4H4C4HC4H2NO2C4HC4H2NO2C4HC4H2NO2C4HC4H2NO2C4HC4H2NO2C4HC4H2NO2C4HC4H2NO2C4HC4H2NO2C4H4C4H4C4H4C4H4C4H4C4H4C4H4C4H4C4HC4H2NO2C4HC4H2NO2C4HC4H2NO2C4HC4H2NO2C4HC4H2NO2C4HC4H2NO2C4HC4H2NO2C4HC4H2NO2C4HC4H2NO2C4HC4H2NO2
_chemical_formula_sum              "C420 H210 N90 O60"
_cell_length_a       66.0854
_cell_length_b       66.0854
_cell_length_c       14.8969
_cell_angle_alpha    90
_cell_angle_beta     90
_cell_angle_gamma    90

_space_group_name_H-M_alt    "P 1"
_space_group_IT_number       1

loop_
  _space_group_symop_operation_xyz
  'x, y, z'

loop_
  _atom_site_type_symbol
  _atom_site_label
  _atom_site_symmetry_multiplicity
  _atom_site_fract_x
  _atom_site_fract_y
  _atom_site_fract_z
  _atom_site_occupancy
  C   C1        1.0  0.28934  0.03479  0.31510  1.0000
  C   C2        1.0  0.33139  0.04482  0.31691  1.0000
  C   C3        1.0  0.31741  0.05732  0.27016  1.0000
  C   C4        1.0  0.29662  0.05224  0.27075  1.0000
  H   H1        1.0  0.28673  0.06148  0.23726  1.0000
  C   C5        1.0  0.35228  0.04995  0.32374  1.0000
  C   C6        1.0  0.39415  0.06067  0.33538  1.0000
  C   C7        1.0  0.37883  0.07457  0.35998  1.0000
  C   C8        1.0  0.35828  0.06922  0.35527  1.0000
  H   H2        1.0  0.38243  0.08870  0.38307  1.0000
  H   H3        1.0  0.34770  0.07957  0.37549  1.0000
  N   N1        1.0  0.32436  0.07442  0.22161  1.0000
  O   O1        1.0  0.31636  0.09051  0.24933  1.0000
  O   O2        1.0  0.32082  0.07268  0.13909  1.0000
  C   C9        1.0  0.71603  0.97303  0.32199  1.0000
  C   C10       1.0  0.67406  0.96286  0.32599  1.0000
  C   C11       1.0  0.68787  0.95060  0.27707  1.0000
  C   C12       1.0  0.70863  0.95575  0.27661  1.0000
  H   H4        1.0  0.71842  0.94666  0.24170  1.0000
  C   C13       1.0  0.65321  0.95763  0.33346  1.0000
  C   C14       1.0  0.61143  0.94652  0.34294  1.0000
  C   C15       1.0  0.62682  0.93264  0.36687  1.0000
  C   C16       1.0  0.64733  0.93818  0.36323  1.0000
  H   H5        1.0  0.62328  0.91835  0.38821  1.0000
  H   H6        1.0  0.65797  0.92779  0.38239  1.0000
  N   N2        1.0  0.68082  0.93368  0.22760  1.0000
  O   O3        1.0  0.68897  0.91751  0.25346  1.0000
  O   O4        1.0  0.68407  0.93576  0.14500  1.0000
  C   C17       1.0  0.97203  0.28921  0.31438  1.0000
  C   C18       1.0  0.96202  0.33127  0.31678  1.0000
  C   C19       1.0  0.94948  0.31733  0.27006  1.0000
  C   C20       1.0  0.95454  0.29653  0.27040  1.0000
  H   H7        1.0  0.94527  0.28667  0.23694  1.0000
  C   C21       1.0  0.95692  0.35217  0.32386  1.0000
  C   C22       1.0  0.94621  0.39404  0.33566  1.0000
  C   C23       1.0  0.93233  0.37872  0.36041  1.0000
  C   C24       1.0  0.93767  0.35817  0.35561  1.0000
  H   H8        1.0  0.91820  0.38233  0.38354  1.0000
  H   H9        1.0  0.92731  0.34760  0.37584  1.0000
  N   N3        1.0  0.93236  0.32431  0.22181  1.0000
  O   O5        1.0  0.91628  0.31631  0.24966  1.0000
  O   O6        1.0  0.93403  0.32081  0.13923  1.0000
  C   C25       1.0  0.03410  0.71604  0.32309  1.0000
  C   C26       1.0  0.04423  0.67405  0.32621  1.0000
  C   C27       1.0  0.05648  0.68790  0.27746  1.0000
  C   C28       1.0  0.05135  0.70867  0.27743  1.0000
  H   H10       1.0  0.06042  0.71847  0.24255  1.0000
  C   C29       1.0  0.04943  0.65319  0.33327  1.0000
  C   C30       1.0  0.06043  0.61138  0.34257  1.0000
  C   C31       1.0  0.07436  0.62672  0.36638  1.0000
  C   C32       1.0  0.06888  0.64725  0.36285  1.0000
  H   H11       1.0  0.08865  0.62315  0.38767  1.0000
  H   H12       1.0  0.07930  0.65786  0.38201  1.0000
  N   N4        1.0  0.07336  0.68087  0.22768  1.0000
  O   O7        1.0  0.08956  0.68898  0.25352  1.0000
  O   O8        1.0  0.07124  0.68420  0.14516  1.0000
  C   C33       1.0  0.20328  0.52117  0.32168  1.0000
  C   C34       1.0  0.18259  0.52612  0.31962  1.0000
  C   C35       1.0  0.13924  0.53491  0.37958  1.0000
  C   C36       1.0  0.11862  0.54011  0.37531  1.0000
  H   H13       1.0  0.14315  0.52092  0.40347  1.0000
  H   H14       1.0  0.10823  0.52964  0.39620  1.0000
  H   H15       1.0  0.20805  0.50845  0.28866  1.0000
  H   H16       1.0  0.17296  0.51678  0.28525  1.0000
  C   C37       1.0  0.80397  0.48514  0.32836  1.0000
  C   C38       1.0  0.82463  0.48008  0.32654  1.0000
  C   C39       1.0  0.86797  0.47083  0.38564  1.0000
  C   C40       1.0  0.88853  0.46546  0.38010  1.0000
  H   H17       1.0  0.86424  0.48482  0.41000  1.0000
  H   H18       1.0  0.89907  0.47582  0.40058  1.0000
  H   H19       1.0  0.79929  0.49787  0.29517  1.0000
  H   H20       1.0  0.83434  0.48935  0.29221  1.0000
  C   C41       1.0  0.52144  0.80351  0.32182  1.0000
  C   C42       1.0  0.52638  0.82420  0.31968  1.0000
  C   C43       1.0  0.53510  0.86755  0.37964  1.0000
  C   C44       1.0  0.54027  0.88818  0.37543  1.0000
  H   H21       1.0  0.52113  0.86362  0.40363  1.0000
  H   H22       1.0  0.52979  0.89855  0.39648  1.0000
  H   H23       1.0  0.50875  0.79872  0.28868  1.0000
  H   H24       1.0  0.51702  0.83382  0.28532  1.0000
  C   C45       1.0  0.48541  0.20283  0.32840  1.0000
  C   C46       1.0  0.48030  0.18218  0.32650  1.0000
  C   C47       1.0  0.47099  0.13885  0.38558  1.0000
  C   C48       1.0  0.46560  0.11830  0.38004  1.0000
  H   H25       1.0  0.48499  0.14257  0.41002  1.0000
  H   H26       1.0  0.47595  0.10775  0.40056  1.0000
  H   H27       1.0  0.49813  0.20749  0.29513  1.0000
  H   H28       1.0  0.48956  0.17246  0.29215  1.0000
  C   C49       1.0  0.17870  0.14930  0.26478  1.0000
  C   C50       1.0  0.18561  0.12917  0.26171  1.0000
  C   C51       1.0  0.21902  0.09697  0.27343  1.0000
  C   C52       1.0  0.22898  0.07822  0.26888  1.0000
  H   H29       1.0  0.22474  0.10885  0.23724  1.0000
  H   H30       1.0  0.24147  0.07717  0.22848  1.0000
  H   H31       1.0  0.17324  0.15582  0.20732  1.0000
  H   H32       1.0  0.18493  0.12159  0.20181  1.0000
  C   C53       1.0  0.81682  0.85298  0.26524  1.0000
  C   C54       1.0  0.81008  0.87314  0.26157  1.0000
  C   C55       1.0  0.78235  0.90732  0.30691  1.0000
  C   C56       1.0  0.77220  0.92595  0.30435  1.0000
  H   H33       1.0  0.77431  0.89453  0.29171  1.0000
  H   H34       1.0  0.75732  0.92562  0.28554  1.0000
  H   H35       1.0  0.81439  0.84373  0.21113  1.0000
  H   H36       1.0  0.80283  0.87783  0.20450  1.0000
  C   C57       1.0  0.85731  0.17887  0.26390  1.0000
  C   C58       1.0  0.87743  0.18581  0.26058  1.0000
  C   C59       1.0  0.90970  0.21904  0.27335  1.0000
  C   C60       1.0  0.92844  0.22901  0.26867  1.0000
  H   H37       1.0  0.89774  0.22487  0.23806  1.0000
  H   H38       1.0  0.92940  0.24162  0.22894  1.0000
  H   H39       1.0  0.85064  0.17375  0.20617  1.0000
  H   H40       1.0  0.88485  0.18546  0.20025  1.0000
  C   C61       1.0  0.15297  0.81887  0.26268  1.0000
  C   C62       1.0  0.13279  0.81216  0.25934  1.0000
  C   C63       1.0  0.09898  0.78320  0.29719  1.0000
  C   C64       1.0  0.08032  0.77311  0.29439  1.0000
  H   H41       1.0  0.11158  0.77558  0.27572  1.0000
  H   H42       1.0  0.08032  0.75871  0.26908  1.0000
  H   H43       1.0  0.16166  0.81804  0.20587  1.0000
  H   H44       1.0  0.12749  0.80657  0.19970  1.0000
  C   C65       1.0  0.32582  0.66136  0.32587  1.0000
  C   C66       1.0  0.31075  0.62049  0.33039  1.0000
  C   C67       1.0  0.29849  0.63648  0.29669  1.0000
  C   C68       1.0  0.30612  0.65653  0.29531  1.0000
  H   H45       1.0  0.29693  0.66776  0.27124  1.0000
  C   C69       1.0  0.30282  0.60053  0.34316  1.0000
  C   C70       1.0  0.28378  0.56157  0.35940  1.0000
  C   C71       1.0  0.30197  0.56394  0.31039  1.0000
  C   C72       1.0  0.31133  0.58313  0.30229  1.0000
  H   H46       1.0  0.30784  0.55200  0.27528  1.0000
  H   H47       1.0  0.32384  0.58452  0.26233  1.0000
  N   N5        1.0  0.27887  0.63220  0.26329  1.0000
  O   O9        1.0  0.27746  0.63644  0.18130  1.0000
  O   O10       1.0  0.26544  0.64178  0.30531  1.0000
  C   C73       1.0  0.68125  0.34511  0.32836  1.0000
  C   C74       1.0  0.69630  0.38598  0.33271  1.0000
  C   C75       1.0  0.70851  0.37001  0.29848  1.0000
  C   C76       1.0  0.70089  0.34996  0.29720  1.0000
  H   H48       1.0  0.71005  0.33874  0.27281  1.0000
  C   C77       1.0  0.70426  0.40592  0.34570  1.0000
  C   C78       1.0  0.72338  0.44482  0.36260  1.0000
  C   C79       1.0  0.70518  0.44252  0.31357  1.0000
  C   C80       1.0  0.69576  0.42337  0.30528  1.0000
  H   H49       1.0  0.69928  0.45453  0.27898  1.0000
  H   H50       1.0  0.68323  0.42204  0.26541  1.0000
  N   N6        1.0  0.72808  0.37433  0.26455  1.0000
  O   O11       1.0  0.72937  0.37012  0.18248  1.0000
  O   O12       1.0  0.74158  0.36473  0.30608  1.0000
  C   C81       1.0  0.66170  0.68093  0.32597  1.0000
  C   C82       1.0  0.62085  0.69602  0.33042  1.0000
  C   C83       1.0  0.63684  0.70825  0.29653  1.0000
  C   C84       1.0  0.65689  0.70061  0.29519  1.0000
  H   H51       1.0  0.66811  0.70978  0.27101  1.0000
  C   C85       1.0  0.60089  0.70396  0.34317  1.0000
  C   C86       1.0  0.56194  0.72303  0.35932  1.0000
  C   C87       1.0  0.56430  0.70481  0.31045  1.0000
  C   C88       1.0  0.58349  0.69545  0.30240  1.0000
  H   H52       1.0  0.55234  0.69891  0.27561  1.0000
  H   H53       1.0  0.58486  0.68289  0.26270  1.0000
  N   N7        1.0  0.63255  0.72785  0.26293  1.0000
  O   O13       1.0  0.63679  0.72922  0.18090  1.0000
  O   O14       1.0  0.64215  0.74130  0.30477  1.0000
  C   C89       1.0  0.34547  0.32549  0.32795  1.0000
  C   C90       1.0  0.38634  0.31047  0.33251  1.0000
  C   C91       1.0  0.37037  0.29821  0.29874  1.0000
  C   C92       1.0  0.35031  0.30581  0.29732  1.0000
  H   H54       1.0  0.33909  0.29661  0.27324  1.0000
  C   C93       1.0  0.40629  0.30254  0.34563  1.0000
  C   C94       1.0  0.44521  0.28348  0.36281  1.0000
  C   C95       1.0  0.44289  0.30162  0.31331  1.0000
  C   C96       1.0  0.42371  0.31098  0.30477  1.0000
  H   H55       1.0  0.45486  0.30742  0.27820  1.0000
  H   H56       1.0  0.42236  0.32345  0.26449  1.0000
  N   N8        1.0  0.37469  0.27858  0.26536  1.0000
  O   O15       1.0  0.37046  0.27717  0.18335  1.0000
  O   O16       1.0  0.36511  0.26514  0.30733  1.0000
  C   C97       1.0  0.23433  0.98713  0.33039  1.0000
  C   C98       1.0  0.22431  0.94468  0.33744  1.0000
  C   C99       1.0  0.24120  0.95151  0.28658  1.0000
  C   C100      1.0  0.24601  0.97240  0.28468  1.0000
  H   H57       1.0  0.25827  0.97685  0.24753  1.0000
  C   C101      1.0  0.21938  0.92354  0.34439  1.0000
  C   C102      1.0  0.21014  0.88083  0.34890  1.0000
  C   C103      1.0  0.22976  0.88813  0.36922  1.0000
  C   C104      1.0  0.23420  0.90899  0.36800  1.0000
  H   H58       1.0  0.24111  0.87829  0.38595  1.0000
  H   H59       1.0  0.24855  0.91348  0.38437  1.0000
  N   N9        1.0  0.25277  0.93758  0.23552  1.0000
  O   O17       1.0  0.27106  0.93756  0.25880  1.0000
  O   O18       1.0  0.25178  0.94136  0.15294  1.0000
  C   C105      1.0  0.77224  0.01946  0.32822  1.0000
  C   C106      1.0  0.78268  0.06184  0.33251  1.0000
  C   C107      1.0  0.76572  0.05501  0.28214  1.0000
  C   C108      1.0  0.76073  0.03417  0.28145  1.0000
  H   H60       1.0  0.74838  0.02974  0.24488  1.0000
  C   C109      1.0  0.78768  0.08298  0.33875  1.0000
  C   C110      1.0  0.79697  0.12570  0.34232  1.0000
  C   C111      1.0  0.77739  0.11842  0.36349  1.0000
  C   C112      1.0  0.77292  0.09756  0.36262  1.0000
  H   H61       1.0  0.76609  0.12825  0.38086  1.0000
  H   H62       1.0  0.75860  0.09310  0.37973  1.0000
  N   N10       1.0  0.75420  0.06892  0.23073  1.0000
  O   O19       1.0  0.73594  0.06915  0.25452  1.0000
  O   O20       1.0  0.75503  0.06493  0.14833  1.0000
  C   C113      1.0  0.01969  0.23415  0.32678  1.0000
  C   C114      1.0  0.06214  0.22405  0.33158  1.0000
  C   C115      1.0  0.05524  0.24112  0.28217  1.0000
  C   C116      1.0  0.03436  0.24596  0.28132  1.0000
  H   H63       1.0  0.02987  0.25835  0.24514  1.0000
  C   C117      1.0  0.08329  0.21910  0.33759  1.0000
  C   C118      1.0  0.12602  0.20985  0.34122  1.0000
  C   C119      1.0  0.11871  0.22940  0.36293  1.0000
  C   C120      1.0  0.09785  0.23384  0.36205  1.0000
  H   H64       1.0  0.12852  0.24068  0.38084  1.0000
  H   H65       1.0  0.09335  0.24811  0.37968  1.0000
  N   N11       1.0  0.06910  0.25285  0.23147  1.0000
  O   O21       1.0  0.06919  0.27106  0.25603  1.0000
  O   O22       1.0  0.06519  0.25216  0.14896  1.0000
  C   C121      1.0  0.98739  0.77197  0.33314  1.0000
  C   C122      1.0  0.94502  0.78229  0.33990  1.0000
  C   C123      1.0  0.95176  0.76546  0.28844  1.0000
  C   C124      1.0  0.97261  0.76051  0.28663  1.0000
  H   H66       1.0  0.97699  0.74826  0.24929  1.0000
  C   C125      1.0  0.92390  0.78729  0.34710  1.0000
  C   C126      1.0  0.88120  0.79660  0.35128  1.0000
  C   C127      1.0  0.88845  0.77695  0.37141  1.0000
  C   C128      1.0  0.90930  0.77248  0.37034  1.0000
  H   H67       1.0  0.87858  0.76559  0.38764  1.0000
  H   H68       1.0  0.91376  0.75809  0.38637  1.0000
  N   N12       1.0  0.93777  0.75405  0.23696  1.0000
  O   O23       1.0  0.93762  0.73573  0.25978  1.0000
  O   O24       1.0  0.94160  0.75511  0.15445  1.0000
  C   C129      1.0  0.29004  0.47995  0.30854  1.0000
  C   C130      1.0  0.29484  0.45912  0.30638  1.0000
  C   C131      1.0  0.30743  0.41596  0.36293  1.0000
  C   C132      1.0  0.31174  0.39506  0.36003  1.0000
  H   H69       1.0  0.31882  0.42577  0.37951  1.0000
  H   H70       1.0  0.32621  0.39052  0.37391  1.0000
  H   H71       1.0  0.29862  0.48981  0.27173  1.0000
  H   H72       1.0  0.30686  0.45458  0.26803  1.0000
  C   C133      1.0  0.71715  0.52638  0.31117  1.0000
  C   C134      1.0  0.71233  0.54719  0.30830  1.0000
  C   C135      1.0  0.69968  0.59044  0.36349  1.0000
  C   C136      1.0  0.69538  0.61135  0.35988  1.0000
  H   H73       1.0  0.68829  0.58067  0.38039  1.0000
  H   H74       1.0  0.68091  0.61590  0.37361  1.0000
  H   H75       1.0  0.70861  0.51645  0.27450  1.0000
  H   H76       1.0  0.70033  0.55167  0.26965  1.0000
  C   C137      1.0  0.48034  0.71671  0.30833  1.0000
  C   C138      1.0  0.45952  0.71191  0.30589  1.0000
  C   C139      1.0  0.41632  0.69932  0.36193  1.0000
  C   C140      1.0  0.39541  0.69503  0.35874  1.0000
  H   H77       1.0  0.42610  0.68792  0.37874  1.0000
  H   H78       1.0  0.39086  0.68056  0.37261  1.0000
  H   H79       1.0  0.49021  0.70816  0.27140  1.0000
  H   H80       1.0  0.45499  0.69990  0.26743  1.0000
  C   C141      1.0  0.52678  0.28962  0.31169  1.0000
  C   C142      1.0  0.54760  0.29443  0.30902  1.0000
  C   C143      1.0  0.59081  0.30705  0.36472  1.0000
  C   C144      1.0  0.61171  0.31136  0.36151  1.0000
  H   H81       1.0  0.58102  0.31843  0.38159  1.0000
  H   H82       1.0  0.61625  0.32583  0.37544  1.0000
  H   H83       1.0  0.51688  0.29820  0.27506  1.0000
  H   H84       1.0  0.55210  0.30645  0.27059  1.0000
  C   C145      1.0  0.27656  0.29026  0.30081  1.0000
  C   C146      1.0  0.26110  0.27560  0.30398  1.0000
  C   C147      1.0  0.23158  0.24423  0.37443  1.0000
  C   C148      1.0  0.21698  0.22865  0.37586  1.0000
  H   H85       1.0  0.24593  0.24091  0.39573  1.0000
  H   H86       1.0  0.22138  0.21465  0.39765  1.0000
  H   H87       1.0  0.29009  0.28629  0.27242  1.0000
  H   H88       1.0  0.26405  0.26165  0.27718  1.0000
  C   C149      1.0  0.73074  0.71585  0.29464  1.0000
  C   C150      1.0  0.74624  0.73047  0.29664  1.0000
  C   C151      1.0  0.77554  0.76217  0.36493  1.0000
  C   C152      1.0  0.79012  0.77776  0.36608  1.0000
  H   H89       1.0  0.76113  0.76556  0.38505  1.0000
  H   H90       1.0  0.78563  0.79182  0.38675  1.0000
  H   H91       1.0  0.71725  0.71969  0.26548  1.0000
  H   H92       1.0  0.74335  0.74429  0.26832  1.0000
  C   C153      1.0  0.71649  0.27622  0.30099  1.0000
  C   C154      1.0  0.73116  0.26076  0.30401  1.0000
  C   C155      1.0  0.76259  0.23129  0.37415  1.0000
  C   C156      1.0  0.77818  0.21669  0.37551  1.0000
  H   H93       1.0  0.76592  0.24564  0.39532  1.0000
  H   H94       1.0  0.79219  0.22110  0.39717  1.0000
  H   H95       1.0  0.72043  0.28974  0.27247  1.0000
  H   H96       1.0  0.74509  0.26372  0.27703  1.0000
  C   C157      1.0  0.29083  0.73035  0.29548  1.0000
  C   C158      1.0  0.27620  0.74585  0.29775  1.0000
  C   C159      1.0  0.24460  0.77519  0.36661  1.0000
  C   C160      1.0  0.22900  0.78977  0.36783  1.0000
  H   H97       1.0  0.24124  0.76080  0.38713  1.0000
  H   H98       1.0  0.21496  0.78531  0.38891  1.0000
  H   H99       1.0  0.28696  0.71685  0.26657  1.0000
  H   H100      1.0  0.26235  0.74294  0.26984  1.0000
  C   C161      1.0  0.52200  0.96210  0.30834  1.0000
  C   C162      1.0  0.50729  0.97742  0.30874  1.0000
  C   C163      1.0  0.47540  0.00664  0.37582  1.0000
  C   C164      1.0  0.46027  0.02157  0.37298  1.0000
  H   H101      1.0  0.47162  0.99244  0.39753  1.0000
  H   H102      1.0  0.44596  0.01769  0.39279  1.0000
  H   H103      1.0  0.51896  0.94895  0.27462  1.0000
  H   H104      1.0  0.49401  0.97488  0.27517  1.0000
  C   C165      1.0  0.04471  0.52195  0.30806  1.0000
  C   C166      1.0  0.02940  0.50724  0.30852  1.0000
  C   C167      1.0  0.00019  0.47536  0.37575  1.0000
  C   C168      1.0  0.98528  0.46021  0.37295  1.0000
  H   H105      1.0  0.01440  0.47159  0.39748  1.0000
  H   H106      1.0  0.98917  0.44591  0.39287  1.0000
  H   H107      1.0  0.05786  0.51890  0.27435  1.0000
  H   H108      1.0  0.03193  0.49395  0.27502  1.0000
  C   C169      1.0  0.23454  0.04347  0.32298  1.0000
  N   N13       1.0  0.22753  0.02403  0.33012  1.0000
  C   C170      1.0  0.24053  0.00785  0.32995  1.0000
  N   N14       1.0  0.26074  0.01175  0.32515  1.0000
  C   C171      1.0  0.26830  0.03074  0.31918  1.0000
  N   N15       1.0  0.25486  0.04615  0.31775  1.0000
  C   C172      1.0  0.77052  0.96296  0.32904  1.0000
  N   N16       1.0  0.77807  0.98229  0.33195  1.0000
  C   C173      1.0  0.76555  0.99889  0.33063  1.0000
  N   N17       1.0  0.74519  0.99563  0.32813  1.0000
  C   C174      1.0  0.73708  0.97685  0.32560  1.0000
  N   N18       1.0  0.75009  0.96115  0.32597  1.0000
  C   C175      1.0  0.96332  0.23442  0.32150  1.0000
  N   N19       1.0  0.98277  0.22738  0.32774  1.0000
  C   C176      1.0  0.99896  0.24037  0.32731  1.0000
  N   N20       1.0  0.99507  0.26059  0.32317  1.0000
  C   C177      1.0  0.97607  0.26817  0.31809  1.0000
  N   N21       1.0  0.96065  0.25474  0.31687  1.0000
  C   C178      1.0  0.04384  0.77061  0.32930  1.0000
  N   N22       1.0  0.02449  0.77804  0.33414  1.0000
  C   C179      1.0  0.00799  0.76540  0.33403  1.0000
  N   N23       1.0  0.01140  0.74507  0.33097  1.0000
  C   C180      1.0  0.03022  0.73709  0.32686  1.0000
  N   N24       1.0  0.04586  0.75020  0.32595  1.0000
  C   C181      1.0  0.27206  0.54339  0.35756  1.0000
  N   N25       1.0  0.27934  0.52400  0.35285  1.0000
  C   C182      1.0  0.26653  0.50766  0.35380  1.0000
  N   N26       1.0  0.24624  0.51128  0.35703  1.0000
  C   C183      1.0  0.23843  0.53019  0.36050  1.0000
  N   N27       1.0  0.25168  0.54574  0.36107  1.0000
  C   C184      1.0  0.73509  0.46302  0.36139  1.0000
  N   N28       1.0  0.72784  0.48240  0.35613  1.0000
  C   C185      1.0  0.74065  0.49875  0.35761  1.0000
  N   N29       1.0  0.76092  0.49513  0.36188  1.0000
  C   C186      1.0  0.76873  0.47621  0.36597  1.0000
  N   N30       1.0  0.75546  0.46067  0.36593  1.0000
  C   C187      1.0  0.54375  0.73474  0.35752  1.0000
  N   N31       1.0  0.52437  0.72745  0.35278  1.0000
  C   C188      1.0  0.50801  0.74024  0.35378  1.0000
  N   N32       1.0  0.51162  0.76053  0.35702  1.0000
  C   C189      1.0  0.53052  0.76836  0.36050  1.0000
  N   N33       1.0  0.54609  0.75512  0.36106  1.0000
  C   C190      1.0  0.46339  0.27174  0.36150  1.0000
  N   N34       1.0  0.48279  0.27896  0.35628  1.0000
  C   C191      1.0  0.49911  0.26613  0.35771  1.0000
  N   N35       1.0  0.49545  0.24585  0.36192  1.0000
  C   C192      1.0  0.47652  0.23808  0.36597  1.0000
  N   N36       1.0  0.46100  0.25138  0.36598  1.0000
  C   C193      1.0  0.17386  0.18109  0.34666  1.0000
  N   N37       1.0  0.15389  0.18583  0.34231  1.0000
  C   C194      1.0  0.14724  0.20534  0.34284  1.0000
  N   N38       1.0  0.16164  0.22016  0.34582  1.0000
  C   C195      1.0  0.18191  0.21623  0.34932  1.0000
  N   N39       1.0  0.18759  0.19639  0.35023  1.0000
  C   C196      1.0  0.83329  0.82521  0.34574  1.0000
  N   N40       1.0  0.85327  0.82053  0.34940  1.0000
  C   C197      1.0  0.85996  0.80103  0.35005  1.0000
  N   N41       1.0  0.84563  0.78613  0.34719  1.0000
  C   C198      1.0  0.82534  0.79002  0.34382  1.0000
  N   N42       1.0  0.81963  0.80985  0.34241  1.0000
  C   C199      1.0  0.82574  0.17355  0.34679  1.0000
  N   N43       1.0  0.82100  0.15358  0.34294  1.0000
  C   C200      1.0  0.80150  0.14692  0.34363  1.0000
  N   N44       1.0  0.78667  0.16132  0.34633  1.0000
  C   C201      1.0  0.79060  0.18160  0.34936  1.0000
  N   N45       1.0  0.81044  0.18729  0.35004  1.0000
  C   C202      1.0  0.18153  0.83293  0.34637  1.0000
  N   N46       1.0  0.18621  0.85292  0.34833  1.0000
  C   C203      1.0  0.20570  0.85960  0.34855  1.0000
  N   N47       1.0  0.22059  0.84525  0.34660  1.0000
  C   C204      1.0  0.21669  0.82495  0.34465  1.0000
  N   N48       1.0  0.19686  0.81923  0.34398  1.0000
  C   C205      1.0  0.33272  0.68188  0.32797  1.0000
  N   N49       1.0  0.35273  0.68659  0.33349  1.0000
  C   C206      1.0  0.35967  0.70600  0.33641  1.0000
  N   N50       1.0  0.34550  0.72105  0.33504  1.0000
  C   C207      1.0  0.32523  0.71736  0.32993  1.0000
  N   N51       1.0  0.31941  0.69762  0.32615  1.0000
  C   C208      1.0  0.67438  0.32459  0.33071  1.0000
  N   N52       1.0  0.65438  0.31984  0.33608  1.0000
  C   C209      1.0  0.64747  0.30042  0.33924  1.0000
  N   N53       1.0  0.66167  0.28540  0.33832  1.0000
  C   C210      1.0  0.68194  0.28912  0.33343  1.0000
  N   N54       1.0  0.68773  0.30887  0.32936  1.0000
  C   C211      1.0  0.68222  0.67402  0.32813  1.0000
  N   N55       1.0  0.68694  0.65401  0.33397  1.0000
  C   C212      1.0  0.70635  0.64707  0.33697  1.0000
  N   N56       1.0  0.72139  0.66124  0.33534  1.0000
  C   C213      1.0  0.71771  0.68151  0.32991  1.0000
  N   N57       1.0  0.69797  0.68733  0.32606  1.0000
  C   C214      1.0  0.32494  0.33236  0.33014  1.0000
  N   N58       1.0  0.32020  0.35238  0.33522  1.0000
  C   C215      1.0  0.30078  0.35929  0.33826  1.0000
  N   N59       1.0  0.28576  0.34510  0.33750  1.0000
  C   C216      1.0  0.28947  0.32482  0.33289  1.0000
  N   N60       1.0  0.30922  0.31903  0.32894  1.0000
  C   C217      1.0  0.44048  0.09161  0.34649  1.0000
  N   N61       1.0  0.45463  0.07672  0.34749  1.0000
  C   C218      1.0  0.44966  0.05678  0.34463  1.0000
  N   N62       1.0  0.42971  0.05192  0.34081  1.0000
  C   C219      1.0  0.41491  0.06619  0.33969  1.0000
  N   N63       1.0  0.42073  0.08591  0.34259  1.0000
  C   C220      1.0  0.56524  0.91522  0.34567  1.0000
  N   N64       1.0  0.55097  0.93002  0.34739  1.0000
  C   C221      1.0  0.55595  0.94994  0.34833  1.0000
  N   N65       1.0  0.57586  0.95497  0.34725  1.0000
  C   C222      1.0  0.59072  0.94079  0.34522  1.0000
  N   N66       1.0  0.58499  0.92103  0.34461  1.0000
  C   C223      1.0  0.91525  0.44036  0.34660  1.0000
  N   N67       1.0  0.93014  0.45451  0.34754  1.0000
  C   C224      1.0  0.95007  0.44956  0.34471  1.0000
  N   N68       1.0  0.95495  0.42961  0.34096  1.0000
  C   C225      1.0  0.94069  0.41481  0.33991  1.0000
  N   N69       1.0  0.92096  0.42061  0.34278  1.0000
  C   C226      1.0  0.09163  0.56512  0.34537  1.0000
  N   N70       1.0  0.07681  0.55088  0.34708  1.0000
  C   C227      1.0  0.05689  0.55590  0.34794  1.0000
  N   N71       1.0  0.05190  0.57581  0.34684  1.0000
  C   C228      1.0  0.06610  0.59064  0.34484  1.0000
  N   N72       1.0  0.08586  0.58488  0.34428  1.0000
  C   C229      1.0  0.30351  0.02202  0.35780  1.0000
  C   C230      1.0  0.32418  0.02706  0.35929  1.0000
  C   C231      1.0  0.36753  0.03592  0.30022  1.0000
  C   C232      1.0  0.38811  0.04117  0.30630  1.0000
  H   H109      1.0  0.36376  0.02185  0.27685  1.0000
  H   H110      1.0  0.39863  0.03066  0.28718  1.0000
  H   H111      1.0  0.29884  0.00939  0.39172  1.0000
  H   H112      1.0  0.33386  0.01788  0.39424  1.0000
  C   C233      1.0  0.70201  0.98562  0.36653  1.0000
  C   C234      1.0  0.68137  0.98050  0.36912  1.0000
  C   C235      1.0  0.63789  0.97166  0.31098  1.0000
  C   C236      1.0  0.61735  0.96622  0.31606  1.0000
  H   H113      1.0  0.64158  0.98584  0.28862  1.0000
  H   H114      1.0  0.60679  0.97672  0.29728  1.0000
  H   H115      1.0  0.70684  0.99809  0.40122  1.0000
  H   H116      1.0  0.67178  0.98950  0.40544  1.0000
  C   C237      1.0  0.98485  0.30336  0.35693  1.0000
  C   C238      1.0  0.97981  0.32402  0.35883  1.0000
  C   C239      1.0  0.97094  0.36742  0.30031  1.0000
  C   C240      1.0  0.96570  0.38800  0.30647  1.0000
  H   H117      1.0  0.98499  0.36365  0.27668  1.0000
  H   H118      1.0  0.97620  0.39852  0.28715  1.0000
  H   H119      1.0  0.99749  0.29865  0.39072  1.0000
  H   H120      1.0  0.98903  0.33368  0.39372  1.0000
  C   C241      1.0  0.02153  0.70199  0.36757  1.0000
  C   C242      1.0  0.02663  0.68134  0.36969  1.0000
  C   C243      1.0  0.03535  0.63791  0.31087  1.0000
  C   C244      1.0  0.04074  0.61735  0.31583  1.0000
  H   H121      1.0  0.02117  0.64163  0.28863  1.0000
  H   H122      1.0  0.03020  0.60681  0.29711  1.0000
  H   H123      1.0  0.00907  0.70678  0.40238  1.0000
  H   H124      1.0  0.01763  0.67172  0.40590  1.0000
  C   C245      1.0  0.21736  0.53412  0.36383  1.0000
  C   C246      1.0  0.17527  0.54398  0.36085  1.0000
  C   C247      1.0  0.18916  0.55667  0.40710  1.0000
  C   C248      1.0  0.20997  0.55168  0.40706  1.0000
  H   H125      1.0  0.21978  0.56105  0.44026  1.0000
  C   C249      1.0  0.15434  0.54894  0.35424  1.0000
  C   C250      1.0  0.11240  0.55956  0.34633  1.0000
  C   C251      1.0  0.12756  0.57342  0.31947  1.0000
  C   C252      1.0  0.14814  0.56812  0.32235  1.0000
  H   H126      1.0  0.12381  0.58753  0.29656  1.0000
  H   H127      1.0  0.15860  0.57848  0.30109  1.0000
  N   N73       1.0  0.18212  0.57387  0.45471  1.0000
  O   O25       1.0  0.19007  0.58992  0.42623  1.0000
  O   O26       1.0  0.18563  0.57237  0.53736  1.0000
  C   C253      1.0  0.78978  0.47224  0.37012  1.0000
  C   C254      1.0  0.83181  0.46215  0.36766  1.0000
  C   C255      1.0  0.81783  0.44953  0.41370  1.0000
  C   C256      1.0  0.79705  0.45465  0.41345  1.0000
  H   H128      1.0  0.78716  0.44531  0.44635  1.0000
  C   C257      1.0  0.85269  0.45697  0.36058  1.0000
  C   C258      1.0  0.89451  0.44602  0.35005  1.0000
  C   C259      1.0  0.87916  0.43232  0.32370  1.0000
  C   C260      1.0  0.85864  0.43779  0.32790  1.0000
  H   H129      1.0  0.88273  0.41823  0.29997  1.0000
  H   H130      1.0  0.84804  0.42756  0.30669  1.0000
  N   N74       1.0  0.82474  0.43225  0.46110  1.0000
  O   O27       1.0  0.81670  0.41628  0.43230  1.0000
  O   O28       1.0  0.82120  0.43371  0.54373  1.0000
  C   C261      1.0  0.53443  0.78944  0.36385  1.0000
  C   C262      1.0  0.54423  0.83154  0.36091  1.0000
  C   C263      1.0  0.55695  0.81767  0.40712  1.0000
  C   C264      1.0  0.55198  0.79685  0.40705  1.0000
  H   H131      1.0  0.56137  0.78705  0.44020  1.0000
  C   C265      1.0  0.54916  0.85248  0.35431  1.0000
  C   C266      1.0  0.55971  0.89444  0.34653  1.0000
  C   C267      1.0  0.57359  0.87930  0.31961  1.0000
  C   C268      1.0  0.56832  0.85872  0.32244  1.0000
  H   H132      1.0  0.58770  0.88308  0.29676  1.0000
  H   H133      1.0  0.57871  0.84827  0.30118  1.0000
  N   N75       1.0  0.57413  0.82473  0.45472  1.0000
  O   O29       1.0  0.59019  0.81680  0.42622  1.0000
  O   O30       1.0  0.57264  0.82121  0.53737  1.0000
  C   C269      1.0  0.47252  0.21703  0.37008  1.0000
  C   C270      1.0  0.46236  0.17502  0.36760  1.0000
  C   C271      1.0  0.44976  0.18902  0.41363  1.0000
  C   C272      1.0  0.45491  0.20979  0.41339  1.0000
  H   H134      1.0  0.44558  0.21970  0.44629  1.0000
  C   C273      1.0  0.45716  0.15415  0.36052  1.0000
  C   C274      1.0  0.44616  0.11234  0.34997  1.0000
  C   C275      1.0  0.43247  0.12771  0.32364  1.0000
  C   C276      1.0  0.43797  0.14822  0.32782  1.0000
  H   H135      1.0  0.41839  0.12416  0.29984  1.0000
  H   H136      1.0  0.42775  0.15884  0.30660  1.0000
  N   N76       1.0  0.43247  0.18214  0.46101  1.0000
  O   O31       1.0  0.41651  0.19020  0.43221  1.0000
  O   O32       1.0  0.43393  0.18567  0.54365  1.0000
  C   C277      1.0  0.18010  0.16065  0.34473  1.0000
  C   C278      1.0  0.19352  0.11951  0.33898  1.0000
  C   C279      1.0  0.19452  0.13068  0.42047  1.0000
  C   C280      1.0  0.18795  0.15115  0.42212  1.0000
  H   H137      1.0  0.18899  0.15917  0.48075  1.0000
  C   C281      1.0  0.20220  0.09976  0.33050  1.0000
  C   C282      1.0  0.22244  0.06135  0.32021  1.0000
  C   C283      1.0  0.20506  0.06390  0.37446  1.0000
  C   C284      1.0  0.19525  0.08288  0.38037  1.0000
  H   H138      1.0  0.20012  0.05230  0.41435  1.0000
  H   H139      1.0  0.18315  0.08440  0.42269  1.0000
  N   N77       1.0  0.20268  0.12145  0.49825  1.0000
  O   O33       1.0  0.18986  0.12082  0.56051  1.0000
  O   O34       1.0  0.21811  0.13063  0.52597  1.0000
  C   C285      1.0  0.82693  0.84562  0.34186  1.0000
  C   C286      1.0  0.81250  0.88654  0.33522  1.0000
  C   C287      1.0  0.82264  0.87916  0.41295  1.0000
  C   C288      1.0  0.83011  0.85898  0.41446  1.0000
  H   H140      1.0  0.83702  0.85372  0.47141  1.0000
  C   C289      1.0  0.80292  0.90606  0.33201  1.0000
  C   C290      1.0  0.78189  0.94443  0.32768  1.0000
  C   C291      1.0  0.80259  0.94323  0.35152  1.0000
  C   C292      1.0  0.81287  0.92443  0.35393  1.0000
  H   H141      1.0  0.81031  0.95605  0.36916  1.0000
  H   H142      1.0  0.82783  0.92426  0.37150  1.0000
  N   N78       1.0  0.82405  0.89156  0.49020  1.0000
  O   O35       1.0  0.84214  0.89434  0.51303  1.0000
  O   O36       1.0  0.81460  0.88406  0.55543  1.0000
  C   C293      1.0  0.84618  0.17980  0.34454  1.0000
  C   C294      1.0  0.88729  0.19331  0.33818  1.0000
  C   C295      1.0  0.87631  0.19386  0.42031  1.0000
  C   C296      1.0  0.85586  0.18723  0.42230  1.0000
  H   H143      1.0  0.84798  0.18795  0.48139  1.0000
  C   C297      1.0  0.90701  0.20204  0.32958  1.0000
  C   C298      1.0  0.94541  0.22234  0.31897  1.0000
  C   C299      1.0  0.94296  0.20481  0.37239  1.0000
  C   C300      1.0  0.92399  0.19497  0.37843  1.0000
  H   H144      1.0  0.95466  0.19974  0.41139  1.0000
  H   H145      1.0  0.92257  0.18273  0.42002  1.0000
  N   N79       1.0  0.88571  0.20166  0.49842  1.0000
  O   O37       1.0  0.88651  0.18855  0.55943  1.0000
  O   O38       1.0  0.87656  0.21693  0.52801  1.0000
  C   C301      1.0  0.16113  0.82662  0.34298  1.0000
  C   C302      1.0  0.12016  0.81245  0.33635  1.0000
  C   C303      1.0  0.12836  0.82026  0.41769  1.0000
  C   C304      1.0  0.14858  0.82759  0.41952  1.0000
  H   H146      1.0  0.15445  0.83281  0.47878  1.0000
  C   C305      1.0  0.10058  0.80304  0.33178  1.0000
  C   C306      1.0  0.06221  0.78216  0.32656  1.0000
  C   C307      1.0  0.06369  0.80224  0.35896  1.0000
  C   C308      1.0  0.08253  0.81243  0.36196  1.0000
  H   H147      1.0  0.05113  0.80941  0.38356  1.0000
  H   H148      1.0  0.08296  0.82686  0.38668  1.0000
  N   N80       1.0  0.11669  0.81956  0.49736  1.0000
  O   O39       1.0  0.11423  0.83690  0.53020  1.0000
  O   O40       1.0  0.12473  0.80840  0.55563  1.0000
  C   C309      1.0  0.33808  0.64511  0.35561  1.0000
  C   C310      1.0  0.33068  0.62510  0.35816  1.0000
  C   C311      1.0  0.28547  0.59785  0.39718  1.0000
  C   C312      1.0  0.27613  0.57885  0.40468  1.0000
  H   H149      1.0  0.27907  0.60991  0.42972  1.0000
  H   H150      1.0  0.26321  0.57795  0.44239  1.0000
  H   H151      1.0  0.35237  0.64778  0.37924  1.0000
  H   H152      1.0  0.33977  0.61399  0.38407  1.0000
  C   C313      1.0  0.66901  0.36134  0.35848  1.0000
  C   C314      1.0  0.67640  0.38135  0.36099  1.0000
  C   C315      1.0  0.72164  0.40850  0.39964  1.0000
  C   C316      1.0  0.73100  0.42749  0.40755  1.0000
  H   H153      1.0  0.72803  0.39640  0.43188  1.0000
  H   H154      1.0  0.74393  0.42831  0.44525  1.0000
  H   H155      1.0  0.65477  0.35865  0.38259  1.0000
  H   H156      1.0  0.66736  0.39244  0.38731  1.0000
  C   C317      1.0  0.64545  0.66869  0.35581  1.0000
  C   C318      1.0  0.62545  0.67610  0.35844  1.0000
  C   C319      1.0  0.59823  0.72135  0.39699  1.0000
  C   C320      1.0  0.57923  0.73069  0.40445  1.0000
  H   H157      1.0  0.61029  0.72778  0.42934  1.0000
  H   H158      1.0  0.57835  0.74365  0.44195  1.0000
  H   H159      1.0  0.64812  0.65442  0.37972  1.0000
  H   H160      1.0  0.61435  0.66703  0.38447  1.0000
  C   C321      1.0  0.36170  0.33777  0.35770  1.0000
  C   C322      1.0  0.38171  0.33040  0.36030  1.0000
  C   C323      1.0  0.40891  0.28526  0.40014  1.0000
  C   C324      1.0  0.42790  0.27592  0.40812  1.0000
  H   H161      1.0  0.39682  0.27890  0.43259  1.0000
  H   H162      1.0  0.42875  0.26303  0.44609  1.0000
  H   H163      1.0  0.35901  0.35206  0.38138  1.0000
  H   H164      1.0  0.39280  0.33949  0.38630  1.0000
  C   C325      1.0  0.21702  0.98029  0.37694  1.0000
  C   C326      1.0  0.21222  0.95948  0.38090  1.0000
  C   C327      1.0  0.19966  0.91634  0.32580  1.0000
  C   C328      1.0  0.19514  0.89548  0.32831  1.0000
  H   H165      1.0  0.18847  0.92623  0.30762  1.0000
  H   H166      1.0  0.18073  0.89110  0.31237  1.0000
  H   H167      1.0  0.20819  0.99034  0.41150  1.0000
  H   H168      1.0  0.19997  0.95514  0.41822  1.0000
  C   C329      1.0  0.78964  0.02628  0.37416  1.0000
  C   C330      1.0  0.79466  0.04706  0.37669  1.0000
  C   C331      1.0  0.80736  0.09015  0.31924  1.0000
  C   C332      1.0  0.81191  0.11101  0.32127  1.0000
  H   H169      1.0  0.81851  0.08023  0.30095  1.0000
  H   H170      1.0  0.82630  0.11538  0.30507  1.0000
  H   H171      1.0  0.79832  0.01626  0.40971  1.0000
  H   H172      1.0  0.80694  0.05140  0.41385  1.0000
  C   C333      1.0  0.02659  0.21666  0.37185  1.0000
  C   C334      1.0  0.04741  0.21184  0.37480  1.0000
  C   C335      1.0  0.09051  0.19946  0.31744  1.0000
  C   C336      1.0  0.11137  0.19494  0.31950  1.0000
  H   H173      1.0  0.08061  0.18832  0.29863  1.0000
  H   H174      1.0  0.11576  0.18057  0.30287  1.0000
  H   H175      1.0  0.01660  0.20775  0.40628  1.0000
  H   H176      1.0  0.05179  0.19945  0.41115  1.0000
  C   C337      1.0  0.98066  0.78927  0.38004  1.0000
  C   C338      1.0  0.95987  0.79421  0.38388  1.0000
  C   C339      1.0  0.91674  0.80704  0.32895  1.0000
  C   C340      1.0  0.89589  0.81159  0.33126  1.0000
  H   H177      1.0  0.92666  0.81822  0.31090  1.0000
  H   H178      1.0  0.89154  0.82601  0.31531  1.0000
  H   H179      1.0  0.99073  0.79790  0.41547  1.0000
  H   H180      1.0  0.95559  0.80641  0.42172  1.0000
  C   C341      1.0  0.27295  0.48702  0.35601  1.0000
  C   C342      1.0  0.28298  0.44456  0.35256  1.0000
  C   C343      1.0  0.26637  0.45166  0.40451  1.0000
  C   C344      1.0  0.26156  0.47255  0.40469  1.0000
  H   H181      1.0  0.24947  0.47720  0.44241  1.0000
  C   C345      1.0  0.28769  0.42336  0.34627  1.0000
  C   C346      1.0  0.29650  0.38055  0.34088  1.0000
  C   C347      1.0  0.27684  0.38805  0.32278  1.0000
  C   C348      1.0  0.27261  0.40895  0.32447  1.0000
  H   H182      1.0  0.26532  0.37836  0.30679  1.0000
  H   H183      1.0  0.25823  0.41358  0.30928  1.0000
  N   N81       1.0  0.25506  0.43799  0.45801  1.0000
  O   O41       1.0  0.23666  0.43787  0.43655  1.0000
  O   O42       1.0  0.25646  0.44218  0.54007  1.0000
  C   C349      1.0  0.73422  0.51939  0.35905  1.0000
  C   C350      1.0  0.72414  0.56183  0.35421  1.0000
  C   C351      1.0  0.74072  0.55483  0.40659  1.0000
  C   C352      1.0  0.74556  0.53395  0.40747  1.0000
  H   H184      1.0  0.75763  0.52937  0.44549  1.0000
  C   C353      1.0  0.71942  0.58302  0.34717  1.0000
  C   C354      1.0  0.71062  0.62581  0.34030  1.0000
  C   C355      1.0  0.73028  0.61828  0.32249  1.0000
  C   C356      1.0  0.73452  0.59739  0.32493  1.0000
  H   H185      1.0  0.74181  0.62794  0.30627  1.0000
  H   H186      1.0  0.74889  0.59274  0.30999  1.0000
  N   N82       1.0  0.75199  0.56860  0.45979  1.0000
  O   O43       1.0  0.77041  0.56870  0.43854  1.0000
  O   O44       1.0  0.75055  0.56454  0.54196  1.0000
  C   C357      1.0  0.48738  0.73381  0.35583  1.0000
  C   C358      1.0  0.44494  0.72376  0.35203  1.0000
  C   C359      1.0  0.45201  0.74035  0.40414  1.0000
  C   C360      1.0  0.47289  0.74518  0.40449  1.0000
  H   H187      1.0  0.47752  0.75727  0.44228  1.0000
  C   C361      1.0  0.42374  0.71905  0.34544  1.0000
  C   C362      1.0  0.38094  0.71027  0.33940  1.0000
  C   C363      1.0  0.38846  0.72993  0.32141  1.0000
  C   C364      1.0  0.40936  0.73415  0.32344  1.0000
  H   H188      1.0  0.37878  0.74146  0.30532  1.0000
  H   H189      1.0  0.41400  0.74852  0.30837  1.0000
  N   N83       1.0  0.43831  0.75165  0.45758  1.0000
  O   O45       1.0  0.43819  0.77005  0.43620  1.0000
  O   O46       1.0  0.44246  0.75023  0.53966  1.0000
  C   C365      1.0  0.51976  0.27252  0.35928  1.0000
  C   C366      1.0  0.56222  0.28257  0.35490  1.0000
  C   C367      1.0  0.55518  0.26596  0.40700  1.0000
  C   C368      1.0  0.53429  0.26114  0.40763  1.0000
  H   H190      1.0  0.52970  0.24905  0.44551  1.0000
  C   C369      1.0  0.58341  0.28730  0.34819  1.0000
  C   C370      1.0  0.62621  0.29613  0.34215  1.0000
  C   C371      1.0  0.61870  0.27647  0.32411  1.0000
  C   C372      1.0  0.59781  0.27223  0.32612  1.0000
  H   H191      1.0  0.62839  0.26496  0.30796  1.0000
  H   H192      1.0  0.59318  0.25785  0.31100  1.0000
  N   N84       1.0  0.56892  0.25466  0.46022  1.0000
  O   O47       1.0  0.56903  0.23625  0.43875  1.0000
  O   O48       1.0  0.56481  0.25605  0.54236  1.0000
  C   C373      1.0  0.27355  0.31007  0.33420  1.0000
  C   C374      1.0  0.24190  0.27981  0.34211  1.0000
  C   C375      1.0  0.23871  0.29965  0.37687  1.0000
  C   C376      1.0  0.25433  0.31441  0.37145  1.0000
  H   H193      1.0  0.25172  0.32842  0.39842  1.0000
  C   C377      1.0  0.22675  0.26407  0.34541  1.0000
  C   C378      1.0  0.19668  0.23216  0.34942  1.0000
  C   C379      1.0  0.19180  0.25203  0.32079  1.0000
  C   C380      1.0  0.20651  0.26751  0.31786  1.0000
  H   H194      1.0  0.17750  0.25535  0.29897  1.0000
  H   H195      1.0  0.20232  0.28134  0.29327  1.0000
  N   N85       1.0  0.22029  0.30430  0.42094  1.0000
  O   O49       1.0  0.21130  0.31883  0.38390  1.0000
  O   O50       1.0  0.22310  0.30857  0.50220  1.0000
  C   C381      1.0  0.73366  0.69621  0.33014  1.0000
  C   C382      1.0  0.76538  0.72643  0.33577  1.0000
  C   C383      1.0  0.76846  0.70677  0.37270  1.0000
  C   C384      1.0  0.75282  0.69202  0.36830  1.0000
  H   H196      1.0  0.75535  0.67815  0.39684  1.0000
  C   C385      1.0  0.78052  0.74219  0.33824  1.0000
  C   C386      1.0  0.81054  0.77414  0.34181  1.0000
  C   C387      1.0  0.81557  0.75417  0.31539  1.0000
  C   C388      1.0  0.80088  0.73866  0.31262  1.0000
  H   H197      1.0  0.83000  0.75076  0.29566  1.0000
  H   H198      1.0  0.80518  0.72471  0.28987  1.0000
  N   N86       1.0  0.78678  0.70233  0.41794  1.0000
  O   O51       1.0  0.79582  0.68759  0.38274  1.0000
  O   O52       1.0  0.78382  0.69849  0.49951  1.0000
  C   C389      1.0  0.69670  0.27321  0.33460  1.0000
  C   C390      1.0  0.72698  0.24157  0.34227  1.0000
  C   C391      1.0  0.70717  0.23838  0.37729  1.0000
  C   C392      1.0  0.69239  0.25399  0.37197  1.0000
  H   H199      1.0  0.67841  0.25138  0.39915  1.0000
  C   C393      1.0  0.74273  0.22642  0.34545  1.0000
  C   C394      1.0  0.77466  0.19637  0.34936  1.0000
  C   C395      1.0  0.75478  0.19147  0.32097  1.0000
  C   C396      1.0  0.73930  0.20617  0.31809  1.0000
  H   H200      1.0  0.75145  0.17715  0.29944  1.0000
  H   H201      1.0  0.72545  0.20197  0.29379  1.0000
  N   N87       1.0  0.70256  0.21997  0.42152  1.0000
  O   O53       1.0  0.68801  0.21096  0.38470  1.0000
  O   O54       1.0  0.69833  0.22280  0.50282  1.0000
  C   C397      1.0  0.31052  0.73330  0.33044  1.0000
  C   C398      1.0  0.28029  0.76501  0.33658  1.0000
  C   C399      1.0  0.30000  0.76812  0.37295  1.0000
  C   C400      1.0  0.31476  0.75248  0.36828  1.0000
  H   H202      1.0  0.32865  0.75503  0.39648  1.0000
  C   C401      1.0  0.26453  0.78015  0.33926  1.0000
  C   C402      1.0  0.23258  0.81016  0.34295  1.0000
  C   C403      1.0  0.25252  0.81516  0.31594  1.0000
  C   C404      1.0  0.26803  0.80047  0.31308  1.0000
  H   H203      1.0  0.25590  0.82956  0.29562  1.0000
  H   H204      1.0  0.28194  0.80475  0.28984  1.0000
  N   N88       1.0  0.30449  0.78647  0.41788  1.0000
  O   O55       1.0  0.31917  0.79550  0.38219  1.0000
  O   O56       1.0  0.30844  0.78355  0.49937  1.0000
  C   C405      1.0  0.54090  0.96512  0.35041  1.0000
  C   C406      1.0  0.51082  0.99605  0.35280  1.0000
  C   C407      1.0  0.52958  0.99909  0.39757  1.0000
  C   C408      1.0  0.54444  0.98369  0.39469  1.0000
  H   H205      1.0  0.55784  0.98600  0.42771  1.0000
  C   C409      1.0  0.49552  0.01120  0.35070  1.0000
  C   C410      1.0  0.46482  0.04160  0.34600  1.0000
  C   C411      1.0  0.48496  0.04608  0.32048  1.0000
  C   C412      1.0  0.50000  0.03107  0.32172  1.0000
  H   H206      1.0  0.48886  0.06025  0.29879  1.0000
  H   H207      1.0  0.51425  0.03477  0.30046  1.0000
  N   N89       1.0  0.53302  0.01705  0.44732  1.0000
  O   O57       1.0  0.54821  0.02653  0.41888  1.0000
  O   O58       1.0  0.53550  0.01335  0.52934  1.0000
  C   C413      1.0  0.04169  0.54086  0.35001  1.0000
  C   C414      1.0  0.01076  0.51078  0.35257  1.0000
  C   C415      1.0  0.00772  0.52955  0.39721  1.0000
  C   C416      1.0  0.02312  0.54442  0.39422  1.0000
  H   H208      1.0  0.02081  0.55782  0.42720  1.0000
  C   C417      1.0  0.99562  0.49547  0.35059  1.0000
  C   C418      1.0  0.96524  0.46474  0.34600  1.0000
  C   C419      1.0  0.96074  0.48487  0.32040  1.0000
  C   C420      1.0  0.97574  0.49992  0.32162  1.0000
  H   H209      1.0  0.94657  0.48876  0.29879  1.0000
  H   H210      1.0  0.97202  0.51417  0.30032  1.0000
  N   N90       1.0  0.98976  0.53300  0.44694  1.0000
  O   O59       1.0  0.98028  0.54819  0.41841  1.0000
  O   O60       1.0  0.99346  0.53551  0.52894  1.0000
