data_image0
_chemical_formula_structural       C4H2C16H16C16H16C16H16C2NC2H2CH3NC2NC2H2CH3NC2NC2H2CH3NC2NC2H2CH3NC2NC2H2CH3NC2NC2H2CH3NC2NC2NC4NC4NC36H24C4H4C3NC3NC5NC5NC36H26C4H4C3NC3NC5NC5NC36H26C4H4C3HC3NHCH3NC3HC3NHCH3NC3HC3NHCH3NC3HC3NHCH3NC3HC3NHCH3NC3HC3NHCH3N
_chemical_formula_sum              "C288 H198 N36"
_cell_length_a       75.1069
_cell_length_b       75.107
_cell_length_c       14.972
_cell_angle_alpha    89.7428
_cell_angle_beta     90.2572
_cell_angle_gamma    120

_space_group_name_H-M_alt    "P 1"
_space_group_IT_number       1

loop_
  _space_group_symop_operation_xyz
  'x, y, z'

loop_
  _atom_site_type_symbol
  _atom_site_label
  _atom_site_symmetry_multiplicity
  _atom_site_fract_x
  _atom_site_fract_y
  _atom_site_fract_z
  _atom_site_occupancy
  C   C1        1.0  0.02065  0.60873  0.34393  1.0000
  C   C2        1.0  0.01367  0.58764  0.34642  1.0000
  C   C3        1.0  0.01265  0.51043  0.34709  1.0000
  C   C4        1.0  0.01911  0.49594  0.34403  1.0000
  H   H1        1.0  0.01195  0.61571  0.34277  1.0000
  H   H2        1.0  0.01007  0.48029  0.34235  1.0000
  C   C5        1.0  0.10988  0.66226  0.27753  1.0000
  C   C6        1.0  0.09330  0.64194  0.27320  1.0000
  C   C7        1.0  0.13814  0.70831  0.31553  1.0000
  C   C8        1.0  0.15576  0.72797  0.32234  1.0000
  C   C9        1.0  0.10837  0.53108  0.26783  1.0000
  C   C10       1.0  0.09332  0.53701  0.26780  1.0000
  C   C11       1.0  0.16242  0.52344  0.29945  1.0000
  C   C12       1.0  0.14782  0.52997  0.30109  1.0000
  C   C13       1.0  0.96674  0.47352  0.27427  1.0000
  C   C14       1.0  0.95034  0.45311  0.27921  1.0000
  C   C15       1.0  0.90554  0.38706  0.32148  1.0000
  C   C16       1.0  0.92294  0.40686  0.31404  1.0000
  C   C17       1.0  0.96759  0.57809  0.26755  1.0000
  C   C18       1.0  0.95236  0.58379  0.26757  1.0000
  C   C19       1.0  0.91257  0.58409  0.30057  1.0000
  C   C20       1.0  0.89769  0.59026  0.29901  1.0000
  H   H3        1.0  0.88437  0.58154  0.26395  1.0000
  H   H4        1.0  0.90942  0.57088  0.26788  1.0000
  H   H5        1.0  0.94576  0.58404  0.20796  1.0000
  H   H6        1.0  0.97146  0.57409  0.20852  1.0000
  H   H7        1.0  0.97138  0.48041  0.21304  1.0000
  H   H8        1.0  0.94331  0.44578  0.22113  1.0000
  H   H9        1.0  0.08948  0.54119  0.20878  1.0000
  H   H10       1.0  0.11490  0.53087  0.20826  1.0000
  H   H11       1.0  0.15119  0.54333  0.26880  1.0000
  H   H12       1.0  0.17578  0.53208  0.26473  1.0000
  H   H13       1.0  0.08783  0.63538  0.21204  1.0000
  H   H14       1.0  0.11618  0.66989  0.21902  1.0000
  H   H15       1.0  0.15615  0.73982  0.28672  1.0000
  H   H16       1.0  0.12626  0.70653  0.27563  1.0000
  H   H17       1.0  0.93424  0.40908  0.26991  1.0000
  H   H18       1.0  0.90471  0.37558  0.28198  1.0000
  C   C21       1.0  0.42430  0.52944  0.28145  1.0000
  C   C22       1.0  0.44462  0.53318  0.27712  1.0000
  C   C23       1.0  0.37825  0.51156  0.31930  1.0000
  C   C24       1.0  0.35858  0.50950  0.32602  1.0000
  C   C25       1.0  0.55547  0.65912  0.27169  1.0000
  C   C26       1.0  0.54955  0.63814  0.27166  1.0000
  C   C27       1.0  0.56311  0.72075  0.30334  1.0000
  C   C28       1.0  0.55658  0.69962  0.30498  1.0000
  C   C29       1.0  0.61304  0.57505  0.27822  1.0000
  C   C30       1.0  0.63345  0.57904  0.28315  1.0000
  C   C31       1.0  0.69951  0.60024  0.32514  1.0000
  C   C32       1.0  0.67970  0.59785  0.31782  1.0000
  C   C33       1.0  0.50847  0.47133  0.27137  1.0000
  C   C34       1.0  0.50276  0.45041  0.27135  1.0000
  C   C35       1.0  0.50246  0.41025  0.30436  1.0000
  C   C36       1.0  0.49628  0.38920  0.30282  1.0000
  H   H19       1.0  0.50501  0.38466  0.26781  1.0000
  H   H20       1.0  0.51567  0.42037  0.27171  1.0000
  H   H21       1.0  0.50252  0.44367  0.21174  1.0000
  H   H22       1.0  0.51248  0.47932  0.21235  1.0000
  H   H23       1.0  0.60614  0.57287  0.21701  1.0000
  H   H24       1.0  0.64078  0.57945  0.22506  1.0000
  H   H25       1.0  0.54537  0.63022  0.21264  1.0000
  H   H26       1.0  0.55570  0.66597  0.21210  1.0000
  H   H27       1.0  0.54322  0.68969  0.27267  1.0000
  H   H28       1.0  0.55447  0.72554  0.26866  1.0000
  H   H29       1.0  0.45118  0.53440  0.21595  1.0000
  H   H30       1.0  0.41666  0.52821  0.22294  1.0000
  H   H31       1.0  0.34675  0.49812  0.29025  1.0000
  H   H32       1.0  0.38005  0.50155  0.27930  1.0000
  H   H33       1.0  0.67746  0.60699  0.27363  1.0000
  H   H34       1.0  0.71097  0.61096  0.28556  1.0000
  C   C37       1.0  0.55713  0.97667  0.28531  1.0000
  C   C38       1.0  0.55340  0.99326  0.28099  1.0000
  C   C39       1.0  0.57500  0.94843  0.32315  1.0000
  C   C40       1.0  0.57707  0.93082  0.32989  1.0000
  C   C41       1.0  0.42756  0.97828  0.27355  1.0000
  C   C42       1.0  0.44853  0.99335  0.27414  1.0000
  C   C43       1.0  0.36592  0.92415  0.30295  1.0000
  C   C44       1.0  0.38705  0.93877  0.30528  1.0000
  C   C45       1.0  0.51149  0.11979  0.28216  1.0000
  C   C46       1.0  0.50750  0.13620  0.28710  1.0000
  C   C47       1.0  0.48631  0.18099  0.32902  1.0000
  C   C48       1.0  0.48870  0.16358  0.32174  1.0000
  C   C49       1.0  0.61510  0.11884  0.27386  1.0000
  C   C50       1.0  0.63602  0.13408  0.27322  1.0000
  C   C51       1.0  0.67619  0.17394  0.30465  1.0000
  C   C52       1.0  0.69724  0.18882  0.30237  1.0000
  H   H35       1.0  0.70171  0.20208  0.26695  1.0000
  H   H36       1.0  0.66603  0.17703  0.27206  1.0000
  H   H37       1.0  0.64268  0.14058  0.21335  1.0000
  H   H38       1.0  0.60704  0.11487  0.21502  1.0000
  H   H39       1.0  0.51365  0.11516  0.22093  1.0000
  H   H40       1.0  0.50708  0.14322  0.22900  1.0000
  H   H41       1.0  0.45653  0.99729  0.21532  1.0000
  H   H42       1.0  0.42080  0.97185  0.21372  1.0000
  H   H43       1.0  0.39703  0.93546  0.27303  1.0000
  H   H44       1.0  0.36120  0.91086  0.26777  1.0000
  H   H45       1.0  0.55222  0.99874  0.21983  1.0000
  H   H46       1.0  0.55840  0.97040  0.22679  1.0000
  H   H47       1.0  0.58847  0.93044  0.29420  1.0000
  H   H48       1.0  0.58503  0.96032  0.28328  1.0000
  H   H49       1.0  0.47956  0.15228  0.27754  1.0000
  H   H50       1.0  0.47561  0.18181  0.28940  1.0000
  C   C53       1.0  0.30136  0.50723  0.34736  1.0000
  C   C54       1.0  0.29069  0.50600  0.26799  1.0000
  N   N1        1.0  0.27186  0.50429  0.27164  1.0000
  C   C55       1.0  0.22466  0.48681  0.30489  1.0000
  C   C56       1.0  0.20715  0.48928  0.30352  1.0000
  H   H51       1.0  0.19368  0.47790  0.27696  1.0000
  H   H52       1.0  0.29729  0.50721  0.20702  1.0000
  C   C57       1.0  0.22244  0.46729  0.27009  1.0000
  H   H53       1.0  0.23641  0.46640  0.27702  1.0000
  H   H54       1.0  0.21836  0.46576  0.19937  1.0000
  H   H55       1.0  0.21025  0.45430  0.30634  1.0000
  N   N2        1.0  0.32031  0.50999  0.34215  1.0000
  C   C58       1.0  0.57934  0.87583  0.35115  1.0000
  C   C59       1.0  0.58058  0.86654  0.27178  1.0000
  N   N3        1.0  0.58229  0.84940  0.27544  1.0000
  C   C60       1.0  0.59975  0.81960  0.30858  1.0000
  C   C61       1.0  0.59727  0.79963  0.30727  1.0000
  H   H56       1.0  0.60865  0.79759  0.28067  1.0000
  H   H57       1.0  0.57933  0.87201  0.21081  1.0000
  C   C62       1.0  0.61926  0.83696  0.27371  1.0000
  H   H58       1.0  0.62016  0.85182  0.28063  1.0000
  H   H59       1.0  0.62078  0.83452  0.20299  1.0000
  H   H60       1.0  0.63226  0.83770  0.30993  1.0000
  N   N4        1.0  0.57657  0.89202  0.34594  1.0000
  C   C63       1.0  0.21070  0.78521  0.34455  1.0000
  C   C64       1.0  0.22016  0.79593  0.26547  1.0000
  N   N5        1.0  0.23730  0.81475  0.26969  1.0000
  C   C65       1.0  0.26708  0.86194  0.30411  1.0000
  C   C66       1.0  0.28707  0.87943  0.30368  1.0000
  H   H61       1.0  0.28918  0.89295  0.27735  1.0000
  H   H62       1.0  0.21480  0.78937  0.20434  1.0000
  C   C67       1.0  0.24981  0.86424  0.26873  1.0000
  H   H63       1.0  0.23493  0.85026  0.27491  1.0000
  H   H64       1.0  0.25239  0.86844  0.19817  1.0000
  H   H65       1.0  0.24899  0.87637  0.30514  1.0000
  N   N6        1.0  0.19452  0.76626  0.33890  1.0000
  C   C68       1.0  0.75730  0.60386  0.34963  1.0000
  C   C69       1.0  0.76767  0.60496  0.26991  1.0000
  N   N7        1.0  0.78664  0.60694  0.27294  1.0000
  C   C70       1.0  0.83412  0.62523  0.30436  1.0000
  C   C71       1.0  0.85181  0.62308  0.30289  1.0000
  H   H66       1.0  0.86512  0.63456  0.27570  1.0000
  H   H67       1.0  0.76077  0.60342  0.20920  1.0000
  C   C72       1.0  0.83592  0.64457  0.26874  1.0000
  H   H68       1.0  0.82182  0.64521  0.27568  1.0000
  H   H69       1.0  0.83983  0.64608  0.19795  1.0000
  H   H70       1.0  0.84807  0.65771  0.30441  1.0000
  N   N8        1.0  0.73824  0.60085  0.34495  1.0000
  C   C73       1.0  0.48271  0.23514  0.35338  1.0000
  C   C74       1.0  0.48164  0.24457  0.27365  1.0000
  N   N9        1.0  0.47965  0.26154  0.27666  1.0000
  C   C75       1.0  0.46134  0.29066  0.30823  1.0000
  C   C76       1.0  0.46348  0.31050  0.30677  1.0000
  H   H71       1.0  0.45198  0.31237  0.27966  1.0000
  H   H72       1.0  0.48315  0.23928  0.21296  1.0000
  C   C77       1.0  0.44200  0.27317  0.27264  1.0000
  H   H73       1.0  0.44138  0.25843  0.27954  1.0000
  H   H74       1.0  0.44048  0.27570  0.20186  1.0000
  H   H75       1.0  0.42887  0.27211  0.30836  1.0000
  N   N10       1.0  0.48571  0.21909  0.34873  1.0000
  C   C78       1.0  0.85144  0.32925  0.34681  1.0000
  C   C79       1.0  0.84186  0.31883  0.26739  1.0000
  N   N11       1.0  0.82487  0.29988  0.27097  1.0000
  C   C80       1.0  0.79576  0.25240  0.30371  1.0000
  C   C81       1.0  0.77591  0.23471  0.30315  1.0000
  H   H76       1.0  0.77397  0.22135  0.27624  1.0000
  H   H77       1.0  0.84701  0.32569  0.20653  1.0000
  C   C82       1.0  0.81316  0.25054  0.26756  1.0000
  H   H78       1.0  0.82792  0.26465  0.27375  1.0000
  H   H79       1.0  0.81047  0.24649  0.19693  1.0000
  H   H80       1.0  0.81429  0.23845  0.30342  1.0000
  N   N12       1.0  0.86747  0.34830  0.34171  1.0000
  C   C83       1.0  0.04188  0.61913  0.34442  1.0000
  C   C84       1.0  0.04836  0.60463  0.34657  1.0000
  N   N13       1.0  0.03087  0.58606  0.34739  1.0000
  C   C85       1.0  0.99265  0.57188  0.34799  1.0000
  C   C86       1.0  0.98563  0.55047  0.34941  1.0000
  N   N14       1.0  0.99705  0.54115  0.34753  1.0000
  C   C87       1.0  0.98525  0.52045  0.35006  1.0000
  C   C88       1.0  0.96491  0.51621  0.35366  1.0000
  C   C89       1.0  0.96515  0.53470  0.35329  1.0000
  C   C90       1.0  0.99179  0.50568  0.34910  1.0000
  N   N15       1.0  0.03013  0.52900  0.34828  1.0000
  C   C91       1.0  0.04733  0.52741  0.34668  1.0000
  C   C92       1.0  0.04034  0.50633  0.34352  1.0000
  C   C93       1.0  0.06836  0.54317  0.34807  1.0000
  C   C94       1.0  0.07538  0.56458  0.34915  1.0000
  N   N16       1.0  0.06395  0.57389  0.34740  1.0000
  C   C95       1.0  0.07576  0.59460  0.34935  1.0000
  C   C96       1.0  0.09611  0.59883  0.35222  1.0000
  C   C97       1.0  0.09587  0.58034  0.35228  1.0000
  C   C98       1.0  0.06921  0.60937  0.34843  1.0000
  C   C99       1.0  0.08482  0.63046  0.35216  1.0000
  C   C100      1.0  0.09299  0.63977  0.43543  1.0000
  C   C101      1.0  0.10964  0.66001  0.43946  1.0000
  C   C102      1.0  0.11857  0.67152  0.36066  1.0000
  C   C103      1.0  0.13646  0.69146  0.36528  1.0000
  C   C104      1.0  0.17242  0.73141  0.37844  1.0000
  C   C105      1.0  0.17082  0.71444  0.42683  1.0000
  C   C106      1.0  0.15322  0.69487  0.42037  1.0000
  C   C107      1.0  0.08356  0.53710  0.34803  1.0000
  C   C108      1.0  0.08914  0.53115  0.42818  1.0000
  C   C109      1.0  0.10409  0.52508  0.42786  1.0000
  C   C110      1.0  0.11399  0.52495  0.34775  1.0000
  C   C111      1.0  0.12898  0.51855  0.34724  1.0000
  C   C112      1.0  0.12528  0.50034  0.39165  1.0000
  C   C113      1.0  0.13978  0.49369  0.38936  1.0000
  C   C114      1.0  0.15862  0.50516  0.34348  1.0000
  C   C115      1.0  0.97621  0.48458  0.35293  1.0000
  C   C116      1.0  0.94284  0.44333  0.36277  1.0000
  C   C117      1.0  0.95276  0.45446  0.44112  1.0000
  C   C118      1.0  0.96921  0.47479  0.43643  1.0000
  C   C119      1.0  0.92520  0.42323  0.36849  1.0000
  C   C120      1.0  0.90923  0.41918  0.42925  1.0000
  C   C121      1.0  0.89184  0.39948  0.43639  1.0000
  C   C122      1.0  0.88966  0.38298  0.38305  1.0000
  C   C123      1.0  0.97742  0.57792  0.34788  1.0000
  C   C124      1.0  0.97176  0.58358  0.42808  1.0000
  C   C125      1.0  0.95663  0.58942  0.42774  1.0000
  C   C126      1.0  0.94663  0.58959  0.34756  1.0000
  C   C127      1.0  0.93137  0.59564  0.34710  1.0000
  C   C128      1.0  0.90117  0.60832  0.34351  1.0000
  C   C129      1.0  0.91998  0.61991  0.38982  1.0000
  C   C130      1.0  0.93475  0.61361  0.39209  1.0000
  H   H81       1.0  0.92314  0.63314  0.42248  1.0000
  H   H82       1.0  0.94830  0.62264  0.42511  1.0000
  H   H83       1.0  0.95274  0.59322  0.48718  1.0000
  H   H84       1.0  0.97859  0.58345  0.48725  1.0000
  H   H85       1.0  0.05092  0.63478  0.34350  1.0000
  H   H86       1.0  0.03070  0.57320  0.35051  1.0000
  H   H87       1.0  0.03031  0.54184  0.35234  1.0000
  H   H88       1.0  0.95233  0.53615  0.35597  1.0000
  H   H89       1.0  0.95189  0.50210  0.35637  1.0000
  H   H90       1.0  0.97574  0.48255  0.49444  1.0000
  H   H91       1.0  0.94796  0.44790  0.50284  1.0000
  H   H92       1.0  0.04904  0.49936  0.34147  1.0000
  H   H93       1.0  0.10914  0.61294  0.35419  1.0000
  H   H94       1.0  0.10869  0.57889  0.35452  1.0000
  H   H95       1.0  0.08234  0.53118  0.48727  1.0000
  H   H96       1.0  0.10790  0.52102  0.48723  1.0000
  H   H97       1.0  0.13639  0.48031  0.42167  1.0000
  H   H98       1.0  0.11170  0.49141  0.42442  1.0000
  H   H99       1.0  0.15287  0.68305  0.45608  1.0000
  H   H100      1.0  0.18250  0.71613  0.46803  1.0000
  H   H101      1.0  0.11534  0.66620  0.50094  1.0000
  H   H102      1.0  0.08723  0.63171  0.49358  1.0000
  H   H103      1.0  0.90997  0.43065  0.46859  1.0000
  H   H104      1.0  0.88074  0.39734  0.48163  1.0000
  C   C131      1.0  0.18982  0.75068  0.38994  1.0000
  C   C132      1.0  0.17250  0.49805  0.34067  1.0000
  C   C133      1.0  0.87243  0.36358  0.39459  1.0000
  C   C134      1.0  0.88702  0.61508  0.34073  1.0000
  H   H105      1.0  0.19938  0.75238  0.43979  1.0000
  H   H106      1.0  0.89214  0.63009  0.34445  1.0000
  H   H107      1.0  0.86321  0.36152  0.44595  1.0000
  H   H108      1.0  0.16714  0.48299  0.34429  1.0000
  C   C135      1.0  0.47783  0.49362  0.34784  1.0000
  C   C136      1.0  0.46743  0.50445  0.34835  1.0000
  C   C137      1.0  0.48193  0.52542  0.35050  1.0000
  N   N17       1.0  0.50050  0.52651  0.35131  1.0000
  C   C138      1.0  0.49892  0.50772  0.35030  1.0000
  C   C139      1.0  0.51468  0.50245  0.35185  1.0000
  C   C140      1.0  0.53609  0.51685  0.35326  1.0000
  N   N18       1.0  0.54541  0.53759  0.35144  1.0000
  C   C141      1.0  0.56611  0.54648  0.35396  1.0000
  C   C142      1.0  0.57035  0.53038  0.35746  1.0000
  C   C143      1.0  0.55186  0.51213  0.35712  1.0000
  C   C144      1.0  0.58088  0.56780  0.35308  1.0000
  C   C145      1.0  0.57613  0.58390  0.35114  1.0000
  N   N19       1.0  0.55756  0.58282  0.35228  1.0000
  C   C146      1.0  0.55915  0.60161  0.35068  1.0000
  C   C147      1.0  0.58023  0.61570  0.34767  1.0000
  C   C148      1.0  0.59062  0.60487  0.34821  1.0000
  C   C149      1.0  0.54339  0.60688  0.35195  1.0000
  C   C150      1.0  0.52198  0.59248  0.35300  1.0000
  N   N20       1.0  0.51267  0.57174  0.35131  1.0000
  C   C151      1.0  0.49196  0.56285  0.35324  1.0000
  C   C152      1.0  0.48773  0.57896  0.35605  1.0000
  C   C153      1.0  0.50622  0.59721  0.35607  1.0000
  C   C154      1.0  0.47719  0.54153  0.35236  1.0000
  C   C155      1.0  0.45609  0.53604  0.35607  1.0000
  C   C156      1.0  0.44677  0.53472  0.43934  1.0000
  C   C157      1.0  0.42654  0.53113  0.44338  1.0000
  C   C158      1.0  0.41502  0.52870  0.36458  1.0000
  C   C159      1.0  0.39508  0.52662  0.36919  1.0000
  C   C160      1.0  0.35512  0.52259  0.38222  1.0000
  C   C161      1.0  0.37207  0.53786  0.43077  1.0000
  C   C162      1.0  0.39164  0.53984  0.42438  1.0000
  C   C163      1.0  0.54945  0.62815  0.35190  1.0000
  C   C164      1.0  0.55540  0.63953  0.43204  1.0000
  C   C165      1.0  0.56147  0.66056  0.43171  1.0000
  C   C166      1.0  0.56160  0.67073  0.35160  1.0000
  C   C167      1.0  0.56801  0.69212  0.35108  1.0000
  C   C168      1.0  0.58622  0.70655  0.39552  1.0000
  C   C169      1.0  0.59287  0.72770  0.39319  1.0000
  C   C170      1.0  0.58140  0.73516  0.34734  1.0000
  C   C171      1.0  0.60198  0.57331  0.35690  1.0000
  C   C172      1.0  0.64324  0.58120  0.36669  1.0000
  C   C173      1.0  0.63212  0.57985  0.44505  1.0000
  C   C174      1.0  0.61178  0.57597  0.44039  1.0000
  C   C175      1.0  0.66335  0.58365  0.37238  1.0000
  C   C176      1.0  0.66742  0.57166  0.43319  1.0000
  C   C177      1.0  0.68713  0.57397  0.44027  1.0000
  C   C178      1.0  0.70360  0.58836  0.38677  1.0000
  C   C179      1.0  0.50864  0.48119  0.35171  1.0000
  C   C180      1.0  0.50297  0.46972  0.43190  1.0000
  C   C181      1.0  0.49713  0.44876  0.43152  1.0000
  C   C182      1.0  0.49696  0.43873  0.35134  1.0000
  C   C183      1.0  0.49089  0.41742  0.35086  1.0000
  C   C184      1.0  0.47822  0.37455  0.34732  1.0000
  C   C185      1.0  0.46662  0.38168  0.39358  1.0000
  C   C186      1.0  0.47292  0.40274  0.39578  1.0000
  H   H109      1.0  0.45340  0.37156  0.42625  1.0000
  H   H110      1.0  0.46390  0.40721  0.42884  1.0000
  H   H111      1.0  0.49331  0.44094  0.49095  1.0000
  H   H112      1.0  0.50310  0.47657  0.49107  1.0000
  H   H113      1.0  0.47085  0.47794  0.34666  1.0000
  H   H114      1.0  0.45178  0.49783  0.34743  1.0000
  H   H115      1.0  0.51335  0.53919  0.35441  1.0000
  H   H116      1.0  0.54471  0.57014  0.35597  1.0000
  H   H117      1.0  0.55041  0.49786  0.35975  1.0000
  H   H118      1.0  0.58446  0.53146  0.36022  1.0000
  H   H119      1.0  0.60403  0.57463  0.49840  1.0000
  H   H120      1.0  0.63868  0.58151  0.50676  1.0000
  H   H121      1.0  0.60627  0.61148  0.34658  1.0000
  H   H122      1.0  0.58721  0.63138  0.34563  1.0000
  H   H123      1.0  0.47362  0.57788  0.35799  1.0000
  H   H124      1.0  0.50766  0.61147  0.35828  1.0000
  H   H125      1.0  0.55538  0.63260  0.49114  1.0000
  H   H126      1.0  0.56554  0.66832  0.49108  1.0000
  H   H127      1.0  0.60626  0.73763  0.42548  1.0000
  H   H128      1.0  0.59516  0.70184  0.42818  1.0000
  H   H129      1.0  0.40345  0.55124  0.46021  1.0000
  H   H130      1.0  0.37036  0.54775  0.47204  1.0000
  H   H131      1.0  0.42035  0.53053  0.50486  1.0000
  H   H132      1.0  0.45485  0.53694  0.49749  1.0000
  H   H133      1.0  0.65597  0.56087  0.47263  1.0000
  H   H134      1.0  0.68929  0.56494  0.48554  1.0000
  C   C187      1.0  0.33585  0.52071  0.39353  1.0000
  C   C188      1.0  0.58850  0.75615  0.34459  1.0000
  C   C189      1.0  0.72302  0.59052  0.39816  1.0000
  C   C190      1.0  0.47147  0.35364  0.34464  1.0000
  H   H135      1.0  0.33412  0.52845  0.44340  1.0000
  H   H136      1.0  0.45645  0.34373  0.34827  1.0000
  H   H137      1.0  0.72510  0.58329  0.44961  1.0000
  H   H138      1.0  0.60357  0.76585  0.34801  1.0000
  C   C191      1.0  0.59294  0.06590  0.35171  1.0000
  C   C192      1.0  0.58212  0.04468  0.35236  1.0000
  C   C193      1.0  0.56115  0.03820  0.35444  1.0000
  N   N21       1.0  0.56005  0.05568  0.35516  1.0000
  C   C194      1.0  0.57884  0.07289  0.35400  1.0000
  C   C195      1.0  0.58410  0.09391  0.35527  1.0000
  C   C196      1.0  0.56970  0.10092  0.35678  1.0000
  N   N22       1.0  0.54896  0.08949  0.35519  1.0000
  C   C197      1.0  0.54006  0.10130  0.35778  1.0000
  C   C198      1.0  0.55617  0.12164  0.36113  1.0000
  C   C199      1.0  0.57442  0.12141  0.36050  1.0000
  C   C200      1.0  0.51875  0.09475  0.35698  1.0000
  C   C201      1.0  0.50264  0.07390  0.35493  1.0000
  N   N23       1.0  0.50374  0.05642  0.35600  1.0000
  C   C202      1.0  0.48495  0.03921  0.35422  1.0000
  C   C203      1.0  0.47085  0.04620  0.35112  1.0000
  C   C204      1.0  0.48168  0.06743  0.35187  1.0000
  C   C205      1.0  0.47968  0.01819  0.35537  1.0000
  C   C206      1.0  0.49408  0.01117  0.35655  1.0000
  N   N24       1.0  0.51482  0.02260  0.35507  1.0000
  C   C207      1.0  0.52372  0.01079  0.35700  1.0000
  C   C208      1.0  0.50761  0.99044  0.35963  1.0000
  C   C209      1.0  0.48936  0.99068  0.35951  1.0000
  C   C210      1.0  0.54503  0.01734  0.35623  1.0000
  C   C211      1.0  0.55053  0.00173  0.35995  1.0000
  C   C212      1.0  0.55182  0.99356  0.44321  1.0000
  C   C213      1.0  0.55541  0.97691  0.44723  1.0000
  C   C214      1.0  0.55786  0.96798  0.36843  1.0000
  C   C215      1.0  0.55994  0.95011  0.37301  1.0000
  C   C216      1.0  0.56397  0.91415  0.38600  1.0000
  C   C217      1.0  0.54868  0.91574  0.43450  1.0000
  C   C218      1.0  0.54671  0.93334  0.42812  1.0000
  C   C219      1.0  0.45842  0.00298  0.35474  1.0000
  C   C220      1.0  0.44693  0.99726  0.43461  1.0000
  C   C221      1.0  0.42591  0.98230  0.43365  1.0000
  C   C222      1.0  0.41585  0.97252  0.35318  1.0000
  C   C223      1.0  0.39446  0.95752  0.35201  1.0000
  C   C224      1.0  0.37996  0.96112  0.39632  1.0000
  C   C225      1.0  0.35881  0.94662  0.39332  1.0000
  C   C226      1.0  0.35144  0.92787  0.34681  1.0000
  C   C227      1.0  0.51323  0.11033  0.36084  1.0000
  C   C228      1.0  0.50535  0.14370  0.37064  1.0000
  C   C229      1.0  0.50671  0.13378  0.44900  1.0000
  C   C230      1.0  0.51059  0.11733  0.44433  1.0000
  C   C231      1.0  0.50289  0.16133  0.37632  1.0000
  C   C232      1.0  0.51488  0.17730  0.43715  1.0000
  C   C233      1.0  0.51258  0.19469  0.44415  1.0000
  C   C234      1.0  0.49820  0.19687  0.39061  1.0000
  C   C235      1.0  0.60536  0.10914  0.35455  1.0000
  C   C236      1.0  0.61693  0.11494  0.43446  1.0000
  C   C237      1.0  0.63789  0.13007  0.43347  1.0000
  C   C238      1.0  0.64781  0.13995  0.35292  1.0000
  C   C239      1.0  0.66911  0.15521  0.35178  1.0000
  C   C240      1.0  0.71196  0.18543  0.34676  1.0000
  C   C241      1.0  0.70491  0.16671  0.39369  1.0000
  C   C242      1.0  0.68385  0.15193  0.39660  1.0000
  H   H139      1.0  0.71509  0.16361  0.42630  1.0000
  H   H140      1.0  0.67945  0.13845  0.43010  1.0000
  H   H141      1.0  0.64577  0.13407  0.49271  1.0000
  H   H142      1.0  0.61016  0.10821  0.49389  1.0000
  H   H143      1.0  0.60862  0.07461  0.35040  1.0000
  H   H144      1.0  0.58874  0.03564  0.35145  1.0000
  H   H145      1.0  0.54737  0.05585  0.35790  1.0000
  H   H146      1.0  0.51641  0.05624  0.35999  1.0000
  H   H147      1.0  0.58869  0.13422  0.36307  1.0000
  H   H148      1.0  0.55509  0.13466  0.36387  1.0000
  H   H149      1.0  0.51193  0.11081  0.50234  1.0000
  H   H150      1.0  0.50505  0.13858  0.51071  1.0000
  H   H151      1.0  0.47506  0.07647  0.35026  1.0000
  H   H152      1.0  0.45517  0.03750  0.34903  1.0000
  H   H153      1.0  0.50869  0.97740  0.36148  1.0000
  H   H154      1.0  0.47509  0.97785  0.36152  1.0000
  H   H155      1.0  0.45378  0.00397  0.49394  1.0000
  H   H156      1.0  0.41807  0.97839  0.49284  1.0000
  H   H157      1.0  0.34883  0.94995  0.42555  1.0000
  H   H158      1.0  0.38461  0.97465  0.42949  1.0000
  H   H159      1.0  0.53530  0.93368  0.46392  1.0000
  H   H160      1.0  0.53878  0.90406  0.47570  1.0000
  H   H161      1.0  0.55599  0.97119  0.50871  1.0000
  H   H162      1.0  0.54958  0.99930  0.50136  1.0000
  H   H163      1.0  0.52567  0.17656  0.47657  1.0000
  H   H164      1.0  0.52161  0.20579  0.48941  1.0000
  C   C243      1.0  0.56585  0.89674  0.39734  1.0000
  C   C244      1.0  0.33045  0.91399  0.34330  1.0000
  C   C245      1.0  0.49605  0.21411  0.40195  1.0000
  C   C246      1.0  0.73287  0.19959  0.34336  1.0000
  H   H165      1.0  0.55812  0.88719  0.44724  1.0000
  H   H166      1.0  0.74279  0.19449  0.34708  1.0000
  H   H167      1.0  0.50328  0.22333  0.45335  1.0000
  H   H168      1.0  0.32074  0.91933  0.34686  1.0000
  C   C247      1.0  0.26186  0.50292  0.34913  1.0000
  C   C248      1.0  0.27142  0.50330  0.43186  1.0000
  C   C249      1.0  0.29119  0.50539  0.42908  1.0000
  H   H169      1.0  0.29837  0.50563  0.48776  1.0000
  C   C250      1.0  0.24311  0.50296  0.34215  1.0000
  C   C251      1.0  0.20784  0.50713  0.33791  1.0000
  C   C252      1.0  0.22675  0.52269  0.37179  1.0000
  N   N25       1.0  0.24331  0.52004  0.37311  1.0000
  H   H170      1.0  0.22821  0.53599  0.39690  1.0000
  C   C253      1.0  0.26184  0.50130  0.52084  1.0000
  H   H171      1.0  0.24620  0.49860  0.51670  1.0000
  H   H172      1.0  0.27105  0.51533  0.55920  1.0000
  H   H173      1.0  0.26125  0.48838  0.55717  1.0000
  N   N26       1.0  0.19203  0.51046  0.33887  1.0000
  C   C254      1.0  0.58366  0.84063  0.35293  1.0000
  C   C255      1.0  0.58328  0.84966  0.43565  1.0000
  C   C256      1.0  0.58119  0.86736  0.43287  1.0000
  H   H174      1.0  0.58095  0.87419  0.49155  1.0000
  C   C257      1.0  0.58362  0.82186  0.34596  1.0000
  C   C258      1.0  0.57943  0.78242  0.34179  1.0000
  C   C259      1.0  0.56389  0.78572  0.37571  1.0000
  N   N27       1.0  0.56654  0.80492  0.37701  1.0000
  H   H175      1.0  0.55058  0.77383  0.40090  1.0000
  C   C260      1.0  0.58529  0.84194  0.52464  1.0000
  H   H176      1.0  0.58800  0.82901  0.52050  1.0000
  H   H177      1.0  0.57126  0.83705  0.56300  1.0000
  H   H178      1.0  0.59821  0.85421  0.56095  1.0000
  N   N28       1.0  0.57609  0.76327  0.34280  1.0000
  C   C261      1.0  0.24593  0.82470  0.34746  1.0000
  C   C262      1.0  0.23672  0.81509  0.42989  1.0000
  C   C263      1.0  0.21902  0.79532  0.42653  1.0000
  H   H179      1.0  0.21208  0.78810  0.48498  1.0000
  C   C264      1.0  0.26473  0.84342  0.34116  1.0000
  C   C265      1.0  0.30419  0.87866  0.33872  1.0000
  C   C266      1.0  0.30080  0.85969  0.37220  1.0000
  N   N29       1.0  0.28159  0.84315  0.37272  1.0000
  H   H180      1.0  0.31263  0.85818  0.39781  1.0000
  C   C267      1.0  0.24429  0.82459  0.51911  1.0000
  H   H181      1.0  0.25724  0.84023  0.51539  1.0000
  H   H182      1.0  0.24908  0.81534  0.55770  1.0000
  H   H183      1.0  0.23196  0.82517  0.55496  1.0000
  N   N30       1.0  0.32334  0.89446  0.34059  1.0000
  C   C268      1.0  0.79704  0.60873  0.35004  1.0000
  C   C269      1.0  0.78779  0.60847  0.43303  1.0000
  C   C270      1.0  0.76789  0.60611  0.43093  1.0000
  H   H184      1.0  0.76094  0.60598  0.48982  1.0000
  C   C271      1.0  0.81590  0.60896  0.34256  1.0000
  C   C272      1.0  0.85152  0.60542  0.33803  1.0000
  C   C273      1.0  0.83282  0.58972  0.37276  1.0000
  N   N31       1.0  0.81608  0.59206  0.37425  1.0000
  H   H185      1.0  0.83166  0.57654  0.39848  1.0000
  C   C274      1.0  0.79780  0.61090  0.52159  1.0000
  H   H186      1.0  0.81349  0.61377  0.51683  1.0000
  H   H187      1.0  0.78889  0.59698  0.56123  1.0000
  H   H188      1.0  0.79839  0.62387  0.55693  1.0000
  N   N32       1.0  0.86754  0.60241  0.33892  1.0000
  C   C275      1.0  0.47788  0.27003  0.35376  1.0000
  C   C276      1.0  0.47811  0.26087  0.43676  1.0000
  C   C277      1.0  0.48046  0.24332  0.43467  1.0000
  H   H189      1.0  0.48057  0.23640  0.49356  1.0000
  C   C278      1.0  0.47763  0.28866  0.34630  1.0000
  C   C279      1.0  0.48114  0.32782  0.34185  1.0000
  C   C280      1.0  0.49686  0.32477  0.37648  1.0000
  N   N33       1.0  0.49453  0.30569  0.37792  1.0000
  H   H190      1.0  0.51004  0.33674  0.40212  1.0000
  C   C281      1.0  0.47567  0.26829  0.52531  1.0000
  H   H191      1.0  0.47283  0.28114  0.52054  1.0000
  H   H192      1.0  0.48958  0.27321  0.56501  1.0000
  H   H193      1.0  0.46269  0.25586  0.56059  1.0000
  N   N34       1.0  0.48414  0.34684  0.34278  1.0000
  C   C282      1.0  0.81652  0.28954  0.34835  1.0000
  C   C283      1.0  0.82586  0.29884  0.43104  1.0000
  C   C284      1.0  0.84341  0.31872  0.42836  1.0000
  H   H194      1.0  0.85045  0.32570  0.48701  1.0000
  C   C285      1.0  0.79787  0.27069  0.34157  1.0000
  C   C286      1.0  0.75868  0.23507  0.33886  1.0000
  C   C287      1.0  0.76183  0.25384  0.37315  1.0000
  N   N35       1.0  0.78091  0.27057  0.37378  1.0000
  H   H195      1.0  0.74991  0.25505  0.39920  1.0000
  C   C288      1.0  0.81860  0.28889  0.51983  1.0000
  H   H196      1.0  0.80574  0.27321  0.51549  1.0000
  H   H197      1.0  0.81377  0.29785  0.55976  1.0000
  H   H198      1.0  0.83109  0.28829  0.55462  1.0000
  N   N36       1.0  0.73966  0.21906  0.34063  1.0000
