data_image0
_chemical_formula_structural       C4HC3NHCO2HC4HC3NHCO2HC4HC3NHCO2HC4HC3NHCO2HCNC2H2CO2HCNC2H2CO2HCNC2H2CO2HCNC2H2CO2HCNC2H2CO2HCNC2H2CO2HCNC2H2CO2HCNC2H2CO2HC4HC3NHCO2HC4HC3NHCO2HC4HC3NHCO2HC4HC3NHCO2HC4HC3NHCO2HC4HC3NHCO2HC4HC3NHCO2HC4HC3NHCO2HCNC2H2CO2HCNC2H2CO2HCNC2H2CO2HCNC2H2CO2HCNC2H2CO2HCNC2H2CO2HCNC2H2CO2HCNC2H2CO2HCNC2H2CO2HCNC2H2CO2HCNCNCNCNCNCNCNCNCNCNCNCNCNCNCNCNCNCNCNCNCNCNCNCNCNCNCNCNCNCNCNCNCNCNCNCNCNCNCNCNCNCNCNCNCNCNCNCNCNCNCNCNCNCNCNCNCNCNCNCNCNC2H2CO2HCNC2H2CO2HCNC2H2CO2HCNC2H2CO2HC4HC3NHCO2HC4HC3NHCO2HC4HC3NHCO2HC4HC3NHCO2HC4HC3NHCO2HC4HC3NHCO2HC4HC3NHCO2HC4HC3NHCO2HCNC2H2CO2HCNC2H2CO2HCNC2H2CO2HCNC2H2CO2HCNC2H2CO2HCNC2H2CO2HCNC2H2CO2HCNC2H2CO2HC4HC3NHCO2HC4HC3NHCO2HC4HC3NHCO2HC4HC3NHCO2HC4HC3NHCO2HC4HC3NHCO2HC4HC3NHCO2HC4HC3NHCO2HC4HC3NHCO2HC4HC3NHCO2H
_chemical_formula_sum              "C420 H180 N120 O120"
_cell_length_a       65.7277
_cell_length_b       65.7277
_cell_length_c       14.9337
_cell_angle_alpha    90
_cell_angle_beta     90
_cell_angle_gamma    90

_space_group_name_H-M_alt    "P 1"
_space_group_IT_number       1

loop_
  _space_group_symop_operation_xyz
  'x, y, z'

loop_
  _atom_site_type_symbol
  _atom_site_label
  _atom_site_symmetry_multiplicity
  _atom_site_fract_x
  _atom_site_fract_y
  _atom_site_fract_z
  _atom_site_occupancy
  C   C1        1.0  0.28766  0.03426  0.32744  1.0000
  C   C2        1.0  0.32966  0.04320  0.32404  1.0000
  C   C3        1.0  0.31646  0.05336  0.26311  1.0000
  C   C4        1.0  0.29546  0.04876  0.26660  1.0000
  H   H1        1.0  0.28575  0.05567  0.22225  1.0000
  C   C5        1.0  0.35094  0.04691  0.33007  1.0000
  C   C6        1.0  0.39252  0.05824  0.33666  1.0000
  C   C7        1.0  0.37681  0.07270  0.32704  1.0000
  N   N1        1.0  0.35718  0.06659  0.32393  1.0000
  H   H2        1.0  0.37983  0.08787  0.32033  1.0000
  C   C8        1.0  0.32360  0.06629  0.19690  1.0000
  O   O1        1.0  0.31567  0.08304  0.18759  1.0000
  O   O2        1.0  0.33264  0.05837  0.13323  1.0000
  H   H3        1.0  0.33675  0.06508  0.08508  1.0000
  C   C9        1.0  0.71593  0.97019  0.33412  1.0000
  C   C10       1.0  0.67392  0.96122  0.33357  1.0000
  C   C11       1.0  0.68688  0.95132  0.27078  1.0000
  C   C12       1.0  0.70789  0.95592  0.27291  1.0000
  H   H4        1.0  0.71742  0.94917  0.22734  1.0000
  C   C13       1.0  0.65269  0.95735  0.34130  1.0000
  C   C14       1.0  0.61119  0.94567  0.34821  1.0000
  C   C15       1.0  0.62701  0.93139  0.33670  1.0000
  N   N2        1.0  0.64657  0.93767  0.33337  1.0000
  H   H5        1.0  0.62412  0.91625  0.32798  1.0000
  C   C16       1.0  0.67950  0.93863  0.20415  1.0000
  O   O3        1.0  0.68737  0.92191  0.19320  1.0000
  O   O4        1.0  0.67026  0.94679  0.14163  1.0000
  H   H6        1.0  0.66599  0.94025  0.09329  1.0000
  C   C17       1.0  0.97002  0.28773  0.32743  1.0000
  C   C18       1.0  0.96115  0.32974  0.32390  1.0000
  C   C19       1.0  0.95097  0.31654  0.26301  1.0000
  C   C20       1.0  0.95553  0.29554  0.26657  1.0000
  H   H7        1.0  0.94861  0.28583  0.22225  1.0000
  C   C21       1.0  0.95747  0.35102  0.32991  1.0000
  C   C22       1.0  0.94618  0.39261  0.33659  1.0000
  C   C23       1.0  0.93171  0.37691  0.32699  1.0000
  N   N3        1.0  0.93780  0.35728  0.32384  1.0000
  H   H8        1.0  0.91653  0.37994  0.32034  1.0000
  C   C24       1.0  0.93806  0.32370  0.19678  1.0000
  O   O5        1.0  0.92130  0.31579  0.18745  1.0000
  O   O6        1.0  0.94599  0.33273  0.13310  1.0000
  H   H9        1.0  0.93929  0.33684  0.08494  1.0000
  C   C25       1.0  0.03409  0.71597  0.33418  1.0000
  C   C26       1.0  0.04315  0.67398  0.33370  1.0000
  C   C27       1.0  0.05302  0.68696  0.27090  1.0000
  C   C28       1.0  0.04839  0.70796  0.27298  1.0000
  H   H10       1.0  0.05512  0.71750  0.22741  1.0000
  C   C29       1.0  0.04705  0.65275  0.34144  1.0000
  C   C30       1.0  0.05877  0.61126  0.34825  1.0000
  C   C31       1.0  0.07303  0.62709  0.33670  1.0000
  N   N4        1.0  0.06673  0.64665  0.33342  1.0000
  H   H11       1.0  0.08818  0.62421  0.32790  1.0000
  C   C32       1.0  0.06572  0.67959  0.20429  1.0000
  O   O7        1.0  0.08244  0.68748  0.19337  1.0000
  O   O8        1.0  0.05759  0.67034  0.14175  1.0000
  H   H12       1.0  0.06413  0.66608  0.09341  1.0000
  C   C33       1.0  0.20190  0.52408  0.28033  1.0000
  N   N5        1.0  0.18196  0.52922  0.28147  1.0000
  C   C34       1.0  0.13719  0.53186  0.31593  1.0000
  C   C35       1.0  0.11664  0.53814  0.31296  1.0000
  H   H13       1.0  0.10556  0.52732  0.30472  1.0000
  H   H14       1.0  0.20688  0.51388  0.23351  1.0000
  C   C36       1.0  0.14110  0.51113  0.30972  1.0000
  O   O9        1.0  0.14336  0.50421  0.23443  1.0000
  O   O10       1.0  0.14980  0.50161  0.36995  1.0000
  H   H15       1.0  0.15016  0.50549  0.42675  1.0000
  C   C37       1.0  0.80384  0.48091  0.29081  1.0000
  N   N6        1.0  0.82380  0.47591  0.29353  1.0000
  C   C38       1.0  0.86850  0.47308  0.33028  1.0000
  C   C39       1.0  0.88900  0.46666  0.32584  1.0000
  H   H16       1.0  0.90013  0.47744  0.31795  1.0000
  H   H17       1.0  0.79903  0.49125  0.24422  1.0000
  C   C40       1.0  0.86468  0.49385  0.32599  1.0000
  O   O11       1.0  0.86270  0.50118  0.25130  1.0000
  O   O12       1.0  0.85579  0.50308  0.38656  1.0000
  H   H18       1.0  0.85523  0.49891  0.44293  1.0000
  C   C41       1.0  0.52423  0.80249  0.28030  1.0000
  N   N7        1.0  0.52933  0.82244  0.28156  1.0000
  C   C42       1.0  0.53187  0.86721  0.31626  1.0000
  C   C43       1.0  0.53812  0.88777  0.31331  1.0000
  H   H19       1.0  0.52727  0.89883  0.30515  1.0000
  H   H20       1.0  0.51403  0.79751  0.23351  1.0000
  C   C44       1.0  0.51115  0.86326  0.31012  1.0000
  O   O13       1.0  0.50421  0.86100  0.23486  1.0000
  O   O14       1.0  0.50166  0.85452  0.37035  1.0000
  H   H21       1.0  0.50555  0.85415  0.42713  1.0000
  C   C45       1.0  0.48106  0.20053  0.29075  1.0000
  N   N8        1.0  0.47600  0.18057  0.29336  1.0000
  C   C46       1.0  0.47308  0.13588  0.32995  1.0000
  C   C47       1.0  0.46662  0.11539  0.32553  1.0000
  H   H22       1.0  0.47738  0.10424  0.31761  1.0000
  H   H23       1.0  0.49140  0.20533  0.24415  1.0000
  C   C48       1.0  0.49385  0.13966  0.32563  1.0000
  O   O15       1.0  0.50118  0.14164  0.25093  1.0000
  O   O16       1.0  0.50310  0.14852  0.38621  1.0000
  H   H24       1.0  0.49895  0.14907  0.44259  1.0000
  C   C49       1.0  0.18653  0.15209  0.25505  1.0000
  N   N9        1.0  0.19321  0.13259  0.25393  1.0000
  C   C50       1.0  0.21973  0.09650  0.25762  1.0000
  C   C51       1.0  0.22858  0.07689  0.25645  1.0000
  H   H25       1.0  0.24161  0.07475  0.21984  1.0000
  H   H26       1.0  0.18756  0.16060  0.19793  1.0000
  C   C52       1.0  0.22989  0.11209  0.21312  1.0000
  O   O17       1.0  0.23160  0.11081  0.13181  1.0000
  O   O18       1.0  0.24332  0.12213  0.25070  1.0000
  H   H27       1.0  0.24464  0.12334  0.30952  1.0000
  C   C53       1.0  0.81662  0.85207  0.25599  1.0000
  N   N10       1.0  0.80987  0.87153  0.25516  1.0000
  C   C54       1.0  0.78352  0.90770  0.26093  1.0000
  C   C55       1.0  0.77459  0.92727  0.26045  1.0000
  H   H28       1.0  0.76131  0.92931  0.22544  1.0000
  H   H29       1.0  0.81494  0.84336  0.19975  1.0000
  C   C56       1.0  0.77312  0.89204  0.21802  1.0000
  O   O19       1.0  0.77099  0.89319  0.13687  1.0000
  O   O20       1.0  0.75990  0.88207  0.25730  1.0000
  H   H30       1.0  0.75889  0.88096  0.31628  1.0000
  C   C57       1.0  0.85219  0.18655  0.25493  1.0000
  N   N11       1.0  0.87168  0.19324  0.25382  1.0000
  C   C58       1.0  0.90776  0.21978  0.25775  1.0000
  C   C59       1.0  0.92735  0.22866  0.25668  1.0000
  H   H31       1.0  0.92948  0.24172  0.22023  1.0000
  H   H32       1.0  0.84366  0.18763  0.19787  1.0000
  C   C60       1.0  0.89215  0.22995  0.21336  1.0000
  O   O21       1.0  0.89343  0.23169  0.13206  1.0000
  O   O22       1.0  0.88211  0.24335  0.25107  1.0000
  H   H33       1.0  0.88091  0.24465  0.30990  1.0000
  C   C61       1.0  0.15221  0.81664  0.25610  1.0000
  N   N12       1.0  0.13274  0.80989  0.25527  1.0000
  C   C62       1.0  0.09656  0.78356  0.26093  1.0000
  C   C63       1.0  0.07698  0.77465  0.26043  1.0000
  H   H34       1.0  0.07492  0.76139  0.22534  1.0000
  H   H35       1.0  0.16090  0.81499  0.19978  1.0000
  C   C64       1.0  0.11221  0.77317  0.21790  1.0000
  O   O23       1.0  0.11104  0.77105  0.13675  1.0000
  O   O24       1.0  0.12218  0.75993  0.25708  1.0000
  H   H36       1.0  0.12331  0.75891  0.31604  1.0000
  C   C65       1.0  0.32535  0.66047  0.34582  1.0000
  C   C66       1.0  0.31012  0.61982  0.35435  1.0000
  C   C67       1.0  0.32297  0.62583  0.28187  1.0000
  C   C68       1.0  0.33059  0.64607  0.27950  1.0000
  H   H37       1.0  0.33931  0.65072  0.22634  1.0000
  C   C69       1.0  0.30041  0.60020  0.36465  1.0000
  C   C70       1.0  0.28187  0.56066  0.36601  1.0000
  C   C71       1.0  0.30069  0.56440  0.32388  1.0000
  N   N13       1.0  0.30872  0.58350  0.32417  1.0000
  H   H38       1.0  0.30774  0.55332  0.28722  1.0000
  C   C72       1.0  0.32680  0.61326  0.20956  1.0000
  O   O25       1.0  0.34453  0.60975  0.18934  1.0000
  O   O26       1.0  0.31349  0.61244  0.15119  1.0000
  H   H39       1.0  0.31489  0.60596  0.09955  1.0000
  C   C73       1.0  0.67912  0.34398  0.34597  1.0000
  C   C74       1.0  0.69477  0.38449  0.35449  1.0000
  C   C75       1.0  0.68160  0.37870  0.28278  1.0000
  C   C76       1.0  0.67379  0.35853  0.28041  1.0000
  H   H40       1.0  0.66487  0.35403  0.22765  1.0000
  C   C77       1.0  0.70474  0.40400  0.36462  1.0000
  C   C78       1.0  0.72365  0.44338  0.36655  1.0000
  C   C79       1.0  0.70466  0.43989  0.32548  1.0000
  N   N14       1.0  0.69644  0.42087  0.32545  1.0000
  H   H41       1.0  0.69753  0.45114  0.29011  1.0000
  C   C80       1.0  0.67765  0.39141  0.21109  1.0000
  O   O27       1.0  0.65989  0.39509  0.19204  1.0000
  O   O28       1.0  0.69078  0.39221  0.15193  1.0000
  H   H42       1.0  0.68927  0.39879  0.10057  1.0000
  C   C81       1.0  0.66059  0.67881  0.34570  1.0000
  C   C82       1.0  0.61996  0.69410  0.35418  1.0000
  C   C83       1.0  0.62595  0.68121  0.28180  1.0000
  C   C84       1.0  0.64617  0.67356  0.27946  1.0000
  H   H43       1.0  0.65081  0.66482  0.22634  1.0000
  C   C85       1.0  0.60036  0.70387  0.36438  1.0000
  C   C86       1.0  0.56088  0.72251  0.36546  1.0000
  C   C87       1.0  0.56455  0.70364  0.32370  1.0000
  N   N15       1.0  0.58363  0.69556  0.32408  1.0000
  H   H44       1.0  0.55345  0.69657  0.28723  1.0000
  C   C88       1.0  0.61337  0.67737  0.20954  1.0000
  O   O29       1.0  0.60983  0.65964  0.18940  1.0000
  O   O30       1.0  0.61255  0.69068  0.15111  1.0000
  H   H45       1.0  0.60605  0.68926  0.09949  1.0000
  C   C89       1.0  0.34410  0.32505  0.34610  1.0000
  C   C90       1.0  0.38464  0.30947  0.35466  1.0000
  C   C91       1.0  0.37881  0.32260  0.28286  1.0000
  C   C92       1.0  0.35863  0.33038  0.28047  1.0000
  H   H46       1.0  0.35412  0.33929  0.22769  1.0000
  C   C93       1.0  0.40416  0.29955  0.36484  1.0000
  C   C94       1.0  0.44358  0.28071  0.36680  1.0000
  C   C95       1.0  0.44005  0.29968  0.32553  1.0000
  N   N16       1.0  0.42101  0.30785  0.32550  1.0000
  H   H47       1.0  0.45127  0.30679  0.28999  1.0000
  C   C96       1.0  0.39151  0.32655  0.21112  1.0000
  O   O31       1.0  0.39517  0.34432  0.19200  1.0000
  O   O32       1.0  0.39231  0.31341  0.15200  1.0000
  H   H48       1.0  0.39888  0.31492  0.10061  1.0000
  C   C97       1.0  0.20903  0.87974  0.34093  1.0000
  C   C98       1.0  0.21749  0.92243  0.34566  1.0000
  C   C99       1.0  0.20293  0.91459  0.28363  1.0000
  C   C100      1.0  0.19877  0.89337  0.28329  1.0000
  H   H49       1.0  0.18862  0.88758  0.23775  1.0000
  C   C101      1.0  0.22350  0.94352  0.35378  1.0000
  C   C102      1.0  0.23303  0.98619  0.35689  1.0000
  C   C103      1.0  0.21381  0.97876  0.33036  1.0000
  N   N17       1.0  0.21010  0.95839  0.32929  1.0000
  H   H50       1.0  0.20278  0.98839  0.30744  1.0000
  C   C104      1.0  0.19397  0.92664  0.21874  1.0000
  O   O33       1.0  0.17537  0.92684  0.21276  1.0000
  O   O34       1.0  0.20439  0.93058  0.15204  1.0000
  H   H51       1.0  0.19977  0.93704  0.10412  1.0000
  C   C105      1.0  0.79496  0.12453  0.34109  1.0000
  C   C106      1.0  0.78642  0.08187  0.34647  1.0000
  C   C107      1.0  0.80095  0.08964  0.28410  1.0000
  C   C108      1.0  0.80515  0.11085  0.28343  1.0000
  H   H52       1.0  0.81528  0.11659  0.23769  1.0000
  C   C109      1.0  0.78037  0.06080  0.35503  1.0000
  C   C110      1.0  0.77075  0.01815  0.35928  1.0000
  C   C111      1.0  0.78993  0.02551  0.33187  1.0000
  N   N18       1.0  0.79369  0.04587  0.33032  1.0000
  H   H53       1.0  0.80090  0.01583  0.30875  1.0000
  C   C112      1.0  0.80984  0.07752  0.21926  1.0000
  O   O35       1.0  0.82843  0.07727  0.21314  1.0000
  O   O36       1.0  0.79937  0.07360  0.15268  1.0000
  H   H54       1.0  0.80395  0.06710  0.10478  1.0000
  C   C113      1.0  0.12454  0.20929  0.34059  1.0000
  C   C114      1.0  0.08185  0.21768  0.34545  1.0000
  C   C115      1.0  0.08971  0.20317  0.28323  1.0000
  C   C116      1.0  0.11093  0.19903  0.28282  1.0000
  H   H55       1.0  0.11674  0.18891  0.23721  1.0000
  C   C117      1.0  0.06075  0.22364  0.35369  1.0000
  C   C118      1.0  0.01807  0.23311  0.35685  1.0000
  C   C119      1.0  0.02553  0.21391  0.33014  1.0000
  N   N19       1.0  0.04590  0.21023  0.32903  1.0000
  H   H56       1.0  0.01591  0.20288  0.30705  1.0000
  C   C120      1.0  0.07766  0.19422  0.21827  1.0000
  O   O37       1.0  0.07749  0.17562  0.21214  1.0000
  O   O38       1.0  0.07372  0.20467  0.15166  1.0000
  H   H57       1.0  0.06726  0.20006  0.10371  1.0000
  C   C121      1.0  0.87976  0.79521  0.34146  1.0000
  C   C122      1.0  0.92241  0.78661  0.34670  1.0000
  C   C123      1.0  0.91466  0.80120  0.28459  1.0000
  C   C124      1.0  0.89346  0.80544  0.28398  1.0000
  H   H58       1.0  0.88773  0.81560  0.23836  1.0000
  C   C125      1.0  0.94347  0.78051  0.35510  1.0000
  C   C126      1.0  0.98611  0.77080  0.35908  1.0000
  C   C127      1.0  0.97877  0.79002  0.33214  1.0000
  N   N20       1.0  0.95843  0.79383  0.33068  1.0000
  H   H59       1.0  0.98848  0.80101  0.30933  1.0000
  C   C128      1.0  0.92679  0.81012  0.21987  1.0000
  O   O39       1.0  0.92707  0.82872  0.21397  1.0000
  O   O40       1.0  0.93071  0.79969  0.15314  1.0000
  H   H60       1.0  0.93722  0.80430  0.10531  1.0000
  C   C129      1.0  0.28153  0.38835  0.26608  1.0000
  N   N21       1.0  0.27811  0.40869  0.26588  1.0000
  C   C130      1.0  0.26149  0.45017  0.28195  1.0000
  C   C131      1.0  0.25682  0.47120  0.28254  1.0000
  H   H61       1.0  0.24255  0.47557  0.26263  1.0000
  H   H62       1.0  0.27362  0.37937  0.22232  1.0000
  C   C132      1.0  0.24608  0.43670  0.25820  1.0000
  O   O41       1.0  0.24014  0.43704  0.18066  1.0000
  O   O42       1.0  0.23335  0.43091  0.31349  1.0000
  H   H63       1.0  0.23522  0.43096  0.37227  1.0000
  C   C133      1.0  0.72349  0.61573  0.26681  1.0000
  N   N22       1.0  0.72696  0.59540  0.26679  1.0000
  C   C134      1.0  0.74368  0.55397  0.28364  1.0000
  C   C135      1.0  0.74843  0.53297  0.28477  1.0000
  H   H64       1.0  0.76276  0.52863  0.26543  1.0000
  H   H65       1.0  0.73145  0.62472  0.22329  1.0000
  C   C136      1.0  0.75907  0.56748  0.26014  1.0000
  O   O43       1.0  0.76512  0.56711  0.18275  1.0000
  O   O44       1.0  0.77171  0.57335  0.31568  1.0000
  H   H66       1.0  0.76976  0.57334  0.37440  1.0000
  C   C137      1.0  0.38852  0.72311  0.26622  1.0000
  N   N23       1.0  0.40887  0.72647  0.26592  1.0000
  C   C138      1.0  0.45039  0.74300  0.28171  1.0000
  C   C139      1.0  0.47143  0.74763  0.28223  1.0000
  H   H67       1.0  0.47582  0.76188  0.26219  1.0000
  H   H68       1.0  0.37955  0.73100  0.22237  1.0000
  C   C140      1.0  0.43695  0.75843  0.25785  1.0000
  O   O45       1.0  0.43732  0.76436  0.18028  1.0000
  O   O46       1.0  0.43116  0.77118  0.31308  1.0000
  H   H69       1.0  0.43120  0.76932  0.37186  1.0000
  C   C141      1.0  0.61591  0.28113  0.26673  1.0000
  N   N24       1.0  0.59558  0.27762  0.26681  1.0000
  C   C142      1.0  0.55420  0.26079  0.28414  1.0000
  C   C143      1.0  0.53321  0.25598  0.28538  1.0000
  H   H70       1.0  0.52891  0.24163  0.26628  1.0000
  H   H71       1.0  0.62491  0.27315  0.22335  1.0000
  C   C144      1.0  0.56775  0.24542  0.26085  1.0000
  O   O47       1.0  0.56740  0.23933  0.18352  1.0000
  O   O48       1.0  0.57363  0.23281  0.31653  1.0000
  H   H72       1.0  0.57359  0.23479  0.37523  1.0000
  C   C145      1.0  0.19276  0.25049  0.30295  1.0000
  N   N25       1.0  0.20764  0.26484  0.30552  1.0000
  C   C146      1.0  0.23504  0.30096  0.33461  1.0000
  C   C147      1.0  0.25108  0.31543  0.33078  1.0000
  H   H73       1.0  0.24754  0.33053  0.32345  1.0000
  H   H74       1.0  0.18016  0.25319  0.26469  1.0000
  C   C148      1.0  0.21532  0.30845  0.33021  1.0000
  O   O49       1.0  0.20788  0.31024  0.25562  1.0000
  O   O50       1.0  0.20297  0.30613  0.39180  1.0000
  H   H75       1.0  0.20638  0.30370  0.44819  1.0000
  C   C149      1.0  0.81165  0.75394  0.30197  1.0000
  N   N26       1.0  0.79682  0.73954  0.30464  1.0000
  C   C150      1.0  0.76955  0.70334  0.33406  1.0000
  C   C151      1.0  0.75357  0.68880  0.33038  1.0000
  H   H76       1.0  0.75717  0.67371  0.32323  1.0000
  H   H77       1.0  0.82428  0.75126  0.26383  1.0000
  C   C152      1.0  0.78930  0.69592  0.32975  1.0000
  O   O51       1.0  0.79675  0.69412  0.25520  1.0000
  O   O52       1.0  0.80163  0.69832  0.39133  1.0000
  H   H78       1.0  0.79822  0.70077  0.44769  1.0000
  C   C153      1.0  0.75382  0.19273  0.30270  1.0000
  N   N27       1.0  0.73945  0.20760  0.30528  1.0000
  C   C154      1.0  0.70332  0.23496  0.33443  1.0000
  C   C155      1.0  0.68883  0.25098  0.33060  1.0000
  H   H79       1.0  0.67373  0.24742  0.32335  1.0000
  H   H80       1.0  0.75112  0.18011  0.26452  1.0000
  C   C156      1.0  0.69585  0.21523  0.33010  1.0000
  O   O53       1.0  0.69406  0.20778  0.25555  1.0000
  O   O54       1.0  0.69820  0.20290  0.39172  1.0000
  H   H81       1.0  0.70064  0.20631  0.44809  1.0000
  C   C157      1.0  0.25037  0.81161  0.30216  1.0000
  N   N28       1.0  0.26476  0.79678  0.30483  1.0000
  C   C158      1.0  0.30095  0.76947  0.33422  1.0000
  C   C159      1.0  0.31546  0.75347  0.33053  1.0000
  H   H82       1.0  0.33055  0.75705  0.32331  1.0000
  H   H83       1.0  0.25304  0.82423  0.26394  1.0000
  C   C160      1.0  0.30839  0.78922  0.32983  1.0000
  O   O55       1.0  0.31018  0.79665  0.25526  1.0000
  O   O56       1.0  0.30601  0.80156  0.39139  1.0000
  H   H84       1.0  0.30357  0.79815  0.44777  1.0000
  C   C161      1.0  0.52306  0.96267  0.28558  1.0000
  N   N29       1.0  0.50863  0.97726  0.28977  1.0000
  C   C162      1.0  0.47211  0.00192  0.33071  1.0000
  C   C163      1.0  0.45742  0.01760  0.32798  1.0000
  H   H85       1.0  0.44237  0.01370  0.32273  1.0000
  H   H86       1.0  0.52123  0.95102  0.24095  1.0000
  C   C164      1.0  0.46570  0.98175  0.32929  1.0000
  O   O57       1.0  0.45598  0.97591  0.26439  1.0000
  O   O58       1.0  0.46258  0.97222  0.39927  1.0000
  H   H87       1.0  0.46766  0.97552  0.45226  1.0000
  C   C165      1.0  0.04175  0.52314  0.28549  1.0000
  N   N30       1.0  0.02716  0.50872  0.28969  1.0000
  C   C166      1.0  0.00251  0.47220  0.33065  1.0000
  C   C167      1.0  0.98682  0.45751  0.32795  1.0000
  H   H88       1.0  0.99072  0.44246  0.32267  1.0000
  H   H89       1.0  0.05340  0.52131  0.24084  1.0000
  C   C168      1.0  0.02267  0.46579  0.32918  1.0000
  O   O59       1.0  0.02851  0.45609  0.26422  1.0000
  O   O60       1.0  0.03221  0.46264  0.39913  1.0000
  H   H90       1.0  0.02890  0.46771  0.45215  1.0000
  C   C169      1.0  0.23267  0.04248  0.31941  1.0000
  N   N31       1.0  0.22569  0.02312  0.33457  1.0000
  C   C170      1.0  0.23884  0.00713  0.34780  1.0000
  N   N32       1.0  0.25913  0.01130  0.34575  1.0000
  C   C171      1.0  0.26662  0.03014  0.33128  1.0000
  N   N33       1.0  0.25311  0.04527  0.31833  1.0000
  C   C172      1.0  0.77085  0.96182  0.32249  1.0000
  N   N34       1.0  0.77793  0.98118  0.33690  1.0000
  C   C173      1.0  0.76487  0.99721  0.35081  1.0000
  N   N35       1.0  0.74456  0.99309  0.35029  1.0000
  C   C174      1.0  0.73698  0.97426  0.33662  1.0000
  N   N36       1.0  0.75040  0.95909  0.32289  1.0000
  C   C175      1.0  0.96177  0.23274  0.31958  1.0000
  N   N37       1.0  0.98113  0.22576  0.33461  1.0000
  C   C176      1.0  0.99713  0.23890  0.34770  1.0000
  N   N38       1.0  0.99297  0.25920  0.34568  1.0000
  C   C177      1.0  0.97412  0.26669  0.33129  1.0000
  N   N39       1.0  0.95898  0.25318  0.31845  1.0000
  C   C178      1.0  0.04245  0.77090  0.32269  1.0000
  N   N40       1.0  0.02308  0.77797  0.33694  1.0000
  C   C179      1.0  0.00705  0.76491  0.35080  1.0000
  N   N41       1.0  0.01117  0.74460  0.35028  1.0000
  C   C180      1.0  0.03001  0.73702  0.33668  1.0000
  N   N42       1.0  0.04518  0.75045  0.32305  1.0000
  C   C181      1.0  0.27034  0.54244  0.35261  1.0000
  N   N43       1.0  0.27761  0.52319  0.33704  1.0000
  C   C182      1.0  0.26471  0.50707  0.32182  1.0000
  N   N44       1.0  0.24435  0.51097  0.32238  1.0000
  C   C183      1.0  0.23658  0.52968  0.33723  1.0000
  N   N45       1.0  0.24986  0.54491  0.35195  1.0000
  C   C184      1.0  0.73514  0.46169  0.35472  1.0000
  N   N46       1.0  0.72782  0.48089  0.33847  1.0000
  C   C185      1.0  0.74065  0.49712  0.32481  1.0000
  N   N47       1.0  0.76103  0.49340  0.32769  1.0000
  C   C186      1.0  0.76889  0.47477  0.34341  1.0000
  N   N48       1.0  0.75565  0.45942  0.35642  1.0000
  C   C187      1.0  0.54266  0.73405  0.35214  1.0000
  N   N49       1.0  0.52340  0.72679  0.33673  1.0000
  C   C188      1.0  0.50727  0.73969  0.32173  1.0000
  N   N50       1.0  0.51119  0.76005  0.32229  1.0000
  C   C189      1.0  0.52990  0.76782  0.33703  1.0000
  N   N51       1.0  0.54512  0.75453  0.35159  1.0000
  C   C190      1.0  0.46189  0.26923  0.35478  1.0000
  N   N52       1.0  0.48109  0.27656  0.33868  1.0000
  C   C191      1.0  0.49733  0.26373  0.32500  1.0000
  N   N53       1.0  0.49361  0.24334  0.32781  1.0000
  C   C192      1.0  0.47497  0.23548  0.34345  1.0000
  N   N54       1.0  0.45962  0.24873  0.35644  1.0000
  C   C193      1.0  0.17237  0.18083  0.33855  1.0000
  N   N55       1.0  0.15227  0.18549  0.33730  1.0000
  C   C194      1.0  0.14574  0.20511  0.34027  1.0000
  N   N56       1.0  0.15996  0.22022  0.34432  1.0000
  C   C195      1.0  0.18032  0.21611  0.34519  1.0000
  N   N57       1.0  0.18618  0.19622  0.34236  1.0000
  C   C196      1.0  0.83190  0.82365  0.33792  1.0000
  N   N58       1.0  0.85202  0.81902  0.33755  1.0000
  C   C197      1.0  0.85857  0.79940  0.34063  1.0000
  N   N59       1.0  0.84436  0.78428  0.34407  1.0000
  C   C198      1.0  0.82400  0.78836  0.34419  1.0000
  N   N60       1.0  0.81812  0.80824  0.34112  1.0000
  C   C199      1.0  0.82347  0.17233  0.33835  1.0000
  N   N61       1.0  0.81880  0.15222  0.33737  1.0000
  C   C200      1.0  0.79917  0.14572  0.34043  1.0000
  N   N62       1.0  0.78407  0.15995  0.34433  1.0000
  C   C201      1.0  0.78820  0.18031  0.34495  1.0000
  N   N63       1.0  0.80810  0.18614  0.34202  1.0000
  C   C202      1.0  0.18065  0.83185  0.33808  1.0000
  N   N64       1.0  0.18527  0.85197  0.33745  1.0000
  C   C203      1.0  0.20488  0.85854  0.34041  1.0000
  N   N65       1.0  0.22002  0.84435  0.34401  1.0000
  C   C204      1.0  0.21595  0.82398  0.34438  1.0000
  N   N66       1.0  0.19608  0.81809  0.34141  1.0000
  C   C205      1.0  0.33201  0.68091  0.34102  1.0000
  N   N67       1.0  0.35213  0.68524  0.33416  1.0000
  C   C206      1.0  0.35893  0.70472  0.32805  1.0000
  N   N68       1.0  0.34492  0.72003  0.32834  1.0000
  C   C207      1.0  0.32449  0.71647  0.33566  1.0000
  N   N69       1.0  0.31854  0.69664  0.34253  1.0000
  C   C208      1.0  0.67238  0.32357  0.34091  1.0000
  N   N70       1.0  0.65225  0.31926  0.33390  1.0000
  C   C209      1.0  0.64543  0.29979  0.32770  1.0000
  N   N71       1.0  0.65943  0.28446  0.32810  1.0000
  C   C210      1.0  0.67985  0.28799  0.33556  1.0000
  N   N72       1.0  0.68582  0.30782  0.34250  1.0000
  C   C211      1.0  0.68103  0.67216  0.34085  1.0000
  N   N73       1.0  0.68539  0.65204  0.33400  1.0000
  C   C212      1.0  0.70488  0.64527  0.32788  1.0000
  N   N74       1.0  0.72017  0.65931  0.32817  1.0000
  C   C213      1.0  0.71658  0.67973  0.33548  1.0000
  N   N75       1.0  0.69674  0.68565  0.34235  1.0000
  C   C214      1.0  0.32369  0.33180  0.34111  1.0000
  N   N76       1.0  0.31941  0.35193  0.33408  1.0000
  C   C215      1.0  0.29995  0.35877  0.32788  1.0000
  N   N77       1.0  0.28460  0.34480  0.32828  1.0000
  C   C216      1.0  0.28810  0.32437  0.33578  1.0000
  N   N78       1.0  0.30792  0.31838  0.34272  1.0000
  C   C217      1.0  0.43947  0.08923  0.33236  1.0000
  N   N79       1.0  0.45343  0.07400  0.33185  1.0000
  C   C218      1.0  0.44818  0.05405  0.33264  1.0000
  N   N80       1.0  0.42807  0.04961  0.33459  1.0000
  C   C219      1.0  0.41335  0.06406  0.33557  1.0000
  N   N81       1.0  0.41947  0.08383  0.33435  1.0000
  C   C220      1.0  0.56480  0.91422  0.32799  1.0000
  N   N82       1.0  0.55056  0.92917  0.32908  1.0000
  C   C221      1.0  0.55558  0.94904  0.33795  1.0000
  N   N83       1.0  0.57548  0.95399  0.34584  1.0000
  C   C222      1.0  0.59041  0.93973  0.34437  1.0000
  N   N84       1.0  0.58465  0.91992  0.33564  1.0000
  C   C223      1.0  0.91520  0.43955  0.33250  1.0000
  N   N85       1.0  0.93042  0.45352  0.33199  1.0000
  C   C224      1.0  0.95037  0.44827  0.33270  1.0000
  N   N86       1.0  0.95482  0.42816  0.33457  1.0000
  C   C225      1.0  0.94038  0.41344  0.33556  1.0000
  N   N87       1.0  0.92060  0.41955  0.33443  1.0000
  C   C226      1.0  0.09022  0.56487  0.32780  1.0000
  N   N88       1.0  0.07527  0.55063  0.32893  1.0000
  C   C227      1.0  0.05541  0.55566  0.33789  1.0000
  N   N89       1.0  0.05046  0.57556  0.34584  1.0000
  C   C228      1.0  0.06473  0.59048  0.34437  1.0000
  N   N90       1.0  0.08453  0.58472  0.33554  1.0000
  C   C229      1.0  0.30154  0.02439  0.38465  1.0000
  N   N91       1.0  0.32149  0.02940  0.38163  1.0000
  C   C230      1.0  0.36596  0.03161  0.34272  1.0000
  C   C231      1.0  0.38659  0.03760  0.34534  1.0000
  H   H91       1.0  0.39751  0.02659  0.35273  1.0000
  H   H92       1.0  0.29679  0.01397  0.43100  1.0000
  C   C232      1.0  0.36179  0.01091  0.34774  1.0000
  O   O61       1.0  0.35994  0.00368  0.42270  1.0000
  O   O62       1.0  0.35264  0.00174  0.28778  1.0000
  H   H93       1.0  0.35199  0.00586  0.23137  1.0000
  C   C233      1.0  0.70227  0.97988  0.39300  1.0000
  N   N92       1.0  0.68232  0.97485  0.39134  1.0000
  C   C234      1.0  0.63758  0.97244  0.35664  1.0000
  C   C235      1.0  0.61699  0.96628  0.35938  1.0000
  H   H94       1.0  0.60598  0.97716  0.36794  1.0000
  H   H95       1.0  0.70722  0.99013  0.43966  1.0000
  C   C236      1.0  0.64162  0.99313  0.36357  1.0000
  O   O63       1.0  0.64384  0.99992  0.43911  1.0000
  O   O64       1.0  0.65040  0.00271  0.30376  1.0000
  H   H96       1.0  0.65078  0.99892  0.24685  1.0000
  C   C237      1.0  0.97992  0.30160  0.38460  1.0000
  N   N93       1.0  0.97494  0.32156  0.38152  1.0000
  C   C238      1.0  0.97279  0.36603  0.34251  1.0000
  C   C239      1.0  0.96682  0.38666  0.34517  1.0000
  H   H97       1.0  0.97784  0.39758  0.35253  1.0000
  H   H98       1.0  0.99033  0.29684  0.43097  1.0000
  C   C240      1.0  0.99349  0.36184  0.34748  1.0000
  O   O65       1.0  0.00072  0.35998  0.42241  1.0000
  O   O66       1.0  0.00264  0.35266  0.28752  1.0000
  H   H99       1.0  0.99851  0.35201  0.23112  1.0000
  C   C241      1.0  0.02443  0.70231  0.39306  1.0000
  N   N94       1.0  0.02950  0.68236  0.39144  1.0000
  C   C242      1.0  0.03197  0.63762  0.35684  1.0000
  C   C243      1.0  0.03816  0.61704  0.35954  1.0000
  H   H100      1.0  0.02729  0.60603  0.36816  1.0000
  H   H101      1.0  0.01417  0.70724  0.43972  1.0000
  C   C244      1.0  0.01128  0.64163  0.36386  1.0000
  O   O67       1.0  0.00450  0.64386  0.43942  1.0000
  O   O68       1.0  0.00168  0.65039  0.30406  1.0000
  H   H102      1.0  0.00545  0.65077  0.24714  1.0000
  C   C245      1.0  0.21551  0.53366  0.33973  1.0000
  C   C246      1.0  0.17356  0.54286  0.33922  1.0000
  C   C247      1.0  0.18647  0.55262  0.40263  1.0000
  C   C248      1.0  0.20744  0.54790  0.40105  1.0000
  H   H103      1.0  0.21694  0.55458  0.44696  1.0000
  C   C249      1.0  0.15238  0.54688  0.33094  1.0000
  C   C250      1.0  0.11097  0.55881  0.32357  1.0000
  C   C251      1.0  0.12687  0.57301  0.33464  1.0000
  N   N95       1.0  0.14640  0.56661  0.33828  1.0000
  H   H104      1.0  0.12407  0.58818  0.34306  1.0000
  C   C252      1.0  0.17905  0.56531  0.46915  1.0000
  O   O69       1.0  0.18699  0.58199  0.48048  1.0000
  O   O70       1.0  0.16970  0.55716  0.53138  1.0000
  H   H105      1.0  0.16539  0.56370  0.57968  1.0000
  C   C253      1.0  0.78999  0.47097  0.34797  1.0000
  C   C254      1.0  0.83201  0.46211  0.35106  1.0000
  C   C255      1.0  0.81886  0.45201  0.41237  1.0000
  C   C256      1.0  0.79786  0.45657  0.40906  1.0000
  H   H106      1.0  0.78818  0.44961  0.45340  1.0000
  C   C257      1.0  0.85321  0.45808  0.34370  1.0000
  C   C258      1.0  0.89452  0.44589  0.33333  1.0000
  C   C259      1.0  0.87853  0.43176  0.34385  1.0000
  N   N96       1.0  0.85906  0.43827  0.34869  1.0000
  H   H107      1.0  0.88121  0.41651  0.34978  1.0000
  C   C260      1.0  0.82605  0.43906  0.47844  1.0000
  O   O71       1.0  0.81813  0.42231  0.48782  1.0000
  O   O72       1.0  0.83515  0.44697  0.54196  1.0000
  H   H108      1.0  0.83929  0.44024  0.59004  1.0000
  C   C261      1.0  0.53386  0.78888  0.33958  1.0000
  C   C262      1.0  0.54295  0.83085  0.33933  1.0000
  C   C263      1.0  0.55275  0.81795  0.40261  1.0000
  C   C264      1.0  0.54809  0.79696  0.40091  1.0000
  H   H109      1.0  0.55480  0.78746  0.44674  1.0000
  C   C265      1.0  0.54692  0.85204  0.33113  1.0000
  C   C266      1.0  0.55877  0.89347  0.32381  1.0000
  C   C267      1.0  0.57301  0.87759  0.33475  1.0000
  N   N97       1.0  0.56664  0.85806  0.33836  1.0000
  H   H110      1.0  0.58818  0.88042  0.34306  1.0000
  C   C268      1.0  0.56544  0.82538  0.46915  1.0000
  O   O73       1.0  0.58213  0.81747  0.48044  1.0000
  O   O74       1.0  0.55727  0.83470  0.53142  1.0000
  H   H111      1.0  0.56380  0.83901  0.57973  1.0000
  C   C269      1.0  0.47115  0.21439  0.34798  1.0000
  C   C270      1.0  0.46219  0.17238  0.35084  1.0000
  C   C271      1.0  0.45212  0.18554  0.41224  1.0000
  C   C272      1.0  0.45673  0.20654  0.40904  1.0000
  H   H112      1.0  0.44980  0.21622  0.45344  1.0000
  C   C273      1.0  0.45810  0.15120  0.34342  1.0000
  C   C274      1.0  0.44584  0.10990  0.33308  1.0000
  C   C275      1.0  0.43174  0.12592  0.34365  1.0000
  N   N98       1.0  0.43829  0.14538  0.34848  1.0000
  H   H113      1.0  0.41648  0.12326  0.34965  1.0000
  C   C276      1.0  0.43916  0.17837  0.47828  1.0000
  O   O75       1.0  0.42242  0.18632  0.48768  1.0000
  O   O76       1.0  0.44704  0.16924  0.54179  1.0000
  H   H114      1.0  0.44031  0.16512  0.58985  1.0000
  C   C277      1.0  0.17871  0.16034  0.33479  1.0000
  C   C278      1.0  0.19314  0.11960  0.32510  1.0000
  C   C279      1.0  0.18487  0.12712  0.40706  1.0000
  C   C280      1.0  0.17770  0.14750  0.41040  1.0000
  H   H115      1.0  0.17231  0.15334  0.46952  1.0000
  C   C281      1.0  0.20239  0.09992  0.31290  1.0000
  C   C282      1.0  0.22081  0.06051  0.30785  1.0000
  C   C283      1.0  0.20298  0.06446  0.35736  1.0000
  N   N99       1.0  0.19494  0.08356  0.35877  1.0000
  H   H116      1.0  0.19682  0.05360  0.39810  1.0000
  C   C284      1.0  0.18526  0.11583  0.48519  1.0000
  O   O77       1.0  0.16925  0.11314  0.52559  1.0000
  O   O78       1.0  0.20150  0.11550  0.52688  1.0000
  H   H117      1.0  0.20305  0.10988  0.58037  1.0000
  C   C285      1.0  0.82550  0.84413  0.33420  1.0000
  C   C286      1.0  0.81072  0.88479  0.32531  1.0000
  C   C287      1.0  0.81999  0.87757  0.40571  1.0000
  C   C288      1.0  0.82737  0.85725  0.40858  1.0000
  H   H118      1.0  0.83347  0.85163  0.46676  1.0000
  C   C289      1.0  0.80126  0.90441  0.31387  1.0000
  C   C290      1.0  0.78264  0.94375  0.31036  1.0000
  C   C291      1.0  0.80085  0.93995  0.35733  1.0000
  N   N100      1.0  0.80897  0.92089  0.35812  1.0000
  H   H119      1.0  0.80728  0.95091  0.39675  1.0000
  C   C292      1.0  0.82038  0.88906  0.48327  1.0000
  O   O79       1.0  0.83677  0.89190  0.52036  1.0000
  O   O80       1.0  0.80457  0.88945  0.52809  1.0000
  H   H120      1.0  0.80354  0.89521  0.58155  1.0000
  C   C293      1.0  0.84396  0.17865  0.33457  1.0000
  C   C294      1.0  0.88469  0.19311  0.32492  1.0000
  C   C295      1.0  0.87720  0.18477  0.40678  1.0000
  C   C296      1.0  0.85683  0.17757  0.41009  1.0000
  H   H121      1.0  0.85101  0.17214  0.46915  1.0000
  C   C297      1.0  0.90436  0.20240  0.31279  1.0000
  C   C298      1.0  0.94374  0.22089  0.30804  1.0000
  C   C299      1.0  0.93983  0.20299  0.35719  1.0000
  N   N101      1.0  0.92074  0.19493  0.35851  1.0000
  H   H122      1.0  0.95071  0.19681  0.39779  1.0000
  C   C300      1.0  0.88850  0.18511  0.48487  1.0000
  O   O81       1.0  0.89120  0.16907  0.52507  1.0000
  O   O82       1.0  0.88884  0.20133  0.52674  1.0000
  H   H123      1.0  0.89447  0.20284  0.58025  1.0000
  C   C301      1.0  0.16018  0.82545  0.33441  1.0000
  C   C302      1.0  0.11950  0.81070  0.32550  1.0000
  C   C303      1.0  0.12675  0.81991  0.40599  1.0000
  C   C304      1.0  0.14708  0.82726  0.40888  1.0000
  H   H124      1.0  0.15271  0.83332  0.46711  1.0000
  C   C305      1.0  0.09987  0.80127  0.31402  1.0000
  C   C306      1.0  0.06051  0.78269  0.31044  1.0000
  C   C307      1.0  0.06434  0.80087  0.35760  1.0000
  N   N102      1.0  0.08341  0.80898  0.35841  1.0000
  H   H125      1.0  0.05339  0.80729  0.39715  1.0000
  C   C308      1.0  0.11528  0.82026  0.48360  1.0000
  O   O83       1.0  0.11245  0.83663  0.52088  1.0000
  O   O84       1.0  0.11489  0.80442  0.52826  1.0000
  H   H126      1.0  0.10915  0.80337  0.58174  1.0000
  C   C309      1.0  0.31280  0.65381  0.41615  1.0000
  N   N103      1.0  0.30615  0.63432  0.41729  1.0000
  C   C310      1.0  0.28196  0.59694  0.41292  1.0000
  C   C311      1.0  0.27316  0.57731  0.41264  1.0000
  H   H127      1.0  0.25950  0.57533  0.44475  1.0000
  H   H128      1.0  0.30858  0.66338  0.46683  1.0000
  C   C312      1.0  0.27084  0.61253  0.45269  1.0000
  O   O85       1.0  0.26841  0.61186  0.53378  1.0000
  O   O86       1.0  0.25739  0.62167  0.41107  1.0000
  H   H129      1.0  0.25662  0.62236  0.35190  1.0000
  C   C313      1.0  0.69197  0.35045  0.41566  1.0000
  N   N104      1.0  0.69881  0.36988  0.41680  1.0000
  C   C314      1.0  0.72339  0.40697  0.41169  1.0000
  C   C315      1.0  0.73236  0.42652  0.41177  1.0000
  H   H130      1.0  0.74611  0.42830  0.44333  1.0000
  H   H131      1.0  0.69629  0.34078  0.46577  1.0000
  C   C316      1.0  0.73448  0.39120  0.45018  1.0000
  O   O87       1.0  0.73712  0.39166  0.53118  1.0000
  O   O88       1.0  0.74775  0.38205  0.40748  1.0000
  H   H132      1.0  0.74836  0.38149  0.34825  1.0000
  C   C317      1.0  0.65395  0.69140  0.41597  1.0000
  N   N105      1.0  0.63447  0.69808  0.41706  1.0000
  C   C318      1.0  0.59715  0.72236  0.41238  1.0000
  C   C319      1.0  0.57754  0.73121  0.41200  1.0000
  H   H133      1.0  0.57560  0.74490  0.44393  1.0000
  H   H134      1.0  0.66353  0.69563  0.46658  1.0000
  C   C320      1.0  0.61277  0.73347  0.45199  1.0000
  O   O89       1.0  0.61212  0.73593  0.53307  1.0000
  O   O90       1.0  0.62191  0.74689  0.41025  1.0000
  H   H135      1.0  0.62260  0.74764  0.35107  1.0000
  C   C321      1.0  0.35059  0.31223  0.41585  1.0000
  N   N106      1.0  0.37003  0.30543  0.41702  1.0000
  C   C322      1.0  0.40718  0.28093  0.41211  1.0000
  C   C323      1.0  0.42675  0.27199  0.41218  1.0000
  H   H136      1.0  0.42856  0.25826  0.44384  1.0000
  H   H137      1.0  0.34093  0.30792  0.46603  1.0000
  C   C324      1.0  0.39144  0.26982  0.45076  1.0000
  O   O91       1.0  0.39193  0.26720  0.53176  1.0000
  O   O92       1.0  0.38229  0.25654  0.40817  1.0000
  H   H138      1.0  0.38170  0.25592  0.34894  1.0000
  C   C325      1.0  0.22334  0.88821  0.40033  1.0000
  N   N107      1.0  0.22660  0.90858  0.40058  1.0000
  C   C326      1.0  0.24285  0.95022  0.38540  1.0000
  C   C327      1.0  0.24721  0.97131  0.38584  1.0000
  H   H139      1.0  0.26140  0.97586  0.40624  1.0000
  H   H140      1.0  0.23108  0.87935  0.44511  1.0000
  C   C328      1.0  0.25840  0.93691  0.40898  1.0000
  O   O93       1.0  0.26426  0.93718  0.48665  1.0000
  O   O94       1.0  0.27126  0.93137  0.35374  1.0000
  H   H141      1.0  0.26945  0.93151  0.29494  1.0000
  C   C329      1.0  0.78069  0.11612  0.40086  1.0000
  N   N108      1.0  0.77740  0.09577  0.40142  1.0000
  C   C330      1.0  0.76106  0.05417  0.38736  1.0000
  C   C331      1.0  0.75665  0.03309  0.38838  1.0000
  H   H142      1.0  0.74249  0.02861  0.40935  1.0000
  H   H143      1.0  0.77302  0.12502  0.44572  1.0000
  C   C332      1.0  0.74556  0.06753  0.41112  1.0000
  O   O95       1.0  0.73977  0.06732  0.48890  1.0000
  O   O96       1.0  0.73268  0.07310  0.35605  1.0000
  H   H144      1.0  0.73443  0.07293  0.29722  1.0000
  C   C333      1.0  0.11605  0.22355  0.40018  1.0000
  N   N109      1.0  0.09569  0.22677  0.40049  1.0000
  C   C334      1.0  0.05402  0.24296  0.38555  1.0000
  C   C335      1.0  0.03292  0.24729  0.38603  1.0000
  H   H145      1.0  0.02836  0.26146  0.40660  1.0000
  H   H146      1.0  0.12490  0.23125  0.44510  1.0000
  C   C336      1.0  0.06731  0.25852  0.40932  1.0000
  O   O97       1.0  0.06701  0.26435  0.48703  1.0000
  O   O98       1.0  0.07286  0.27140  0.35419  1.0000
  H   H147      1.0  0.07274  0.26961  0.29537  1.0000
  C   C337      1.0  0.88815  0.78089  0.40101  1.0000
  N   N110      1.0  0.90850  0.77756  0.40149  1.0000
  C   C338      1.0  0.95006  0.76115  0.38700  1.0000
  C   C339      1.0  0.97114  0.75670  0.38792  1.0000
  H   H148      1.0  0.97559  0.74251  0.40861  1.0000
  H   H149      1.0  0.87923  0.77318  0.44568  1.0000
  C   C340      1.0  0.93667  0.74566  0.41048  1.0000
  O   O99       1.0  0.93686  0.73982  0.48819  1.0000
  O   O100      1.0  0.93110  0.73281  0.35521  1.0000
  H   H150      1.0  0.93130  0.73461  0.29640  1.0000
  C   C341      1.0  0.29605  0.38002  0.32481  1.0000
  C   C342      1.0  0.28727  0.42264  0.32014  1.0000
  C   C343      1.0  0.30208  0.41495  0.38137  1.0000
  C   C344      1.0  0.30638  0.39376  0.38177  1.0000
  H   H151      1.0  0.31659  0.38807  0.42726  1.0000
  C   C345      1.0  0.28097  0.44367  0.31277  1.0000
  C   C346      1.0  0.27081  0.48622  0.31190  1.0000
  C   C347      1.0  0.29016  0.47900  0.33765  1.0000
  N   N111      1.0  0.29417  0.45869  0.33765  1.0000
  H   H152      1.0  0.30109  0.48874  0.36071  1.0000
  C   C348      1.0  0.31110  0.42706  0.44588  1.0000
  O   O101      1.0  0.32971  0.42751  0.45049  1.0000
  O   O102      1.0  0.30088  0.43072  0.51350  1.0000
  H   H153      1.0  0.30559  0.43719  0.56125  1.0000
  C   C349      1.0  0.70884  0.62403  0.32502  1.0000
  C   C350      1.0  0.71774  0.58142  0.32077  1.0000
  C   C351      1.0  0.70280  0.58909  0.38144  1.0000
  C   C352      1.0  0.69845  0.61027  0.38165  1.0000
  H   H154      1.0  0.68814  0.61594  0.42677  1.0000
  C   C353      1.0  0.72412  0.56042  0.31375  1.0000
  C   C354      1.0  0.73446  0.51791  0.31393  1.0000
  C   C355      1.0  0.71503  0.52507  0.33887  1.0000
  N   N112      1.0  0.71094  0.54536  0.33843  1.0000
  H   H155      1.0  0.70411  0.51530  0.36181  1.0000
  C   C356      1.0  0.69369  0.57697  0.44566  1.0000
  O   O103      1.0  0.67507  0.57645  0.44947  1.0000
  O   O104      1.0  0.70377  0.57338  0.51376  1.0000
  H   H156      1.0  0.69898  0.56691  0.56135  1.0000
  C   C357      1.0  0.38017  0.70862  0.32509  1.0000
  C   C358      1.0  0.42281  0.71731  0.32024  1.0000
  C   C359      1.0  0.41509  0.70255  0.38163  1.0000
  C   C360      1.0  0.39390  0.69830  0.38213  1.0000
  H   H157      1.0  0.38819  0.68811  0.42770  1.0000
  C   C361      1.0  0.44385  0.72355  0.31273  1.0000
  C   C362      1.0  0.48642  0.73362  0.31177  1.0000
  C   C363      1.0  0.47916  0.71429  0.33765  1.0000
  N   N113      1.0  0.45884  0.71033  0.33771  1.0000
  H   H158      1.0  0.48888  0.70336  0.36084  1.0000
  C   C364      1.0  0.42720  0.69353  0.44618  1.0000
  O   O105      1.0  0.42762  0.67492  0.45089  1.0000
  O   O106      1.0  0.43088  0.70376  0.51375  1.0000
  H   H159      1.0  0.43734  0.69905  0.56152  1.0000
  C   C365      1.0  0.62419  0.29585  0.32471  1.0000
  C   C366      1.0  0.58159  0.28684  0.32069  1.0000
  C   C367      1.0  0.58924  0.30185  0.38111  1.0000
  C   C368      1.0  0.61041  0.30624  0.38121  1.0000
  H   H160      1.0  0.61606  0.31659  0.42622  1.0000
  C   C369      1.0  0.56060  0.28040  0.31385  1.0000
  C   C370      1.0  0.51812  0.26995  0.31432  1.0000
  C   C371      1.0  0.52523  0.28942  0.33882  1.0000
  N   N114      1.0  0.54551  0.29357  0.33829  1.0000
  H   H161      1.0  0.51543  0.30034  0.36151  1.0000
  C   C372      1.0  0.57709  0.31097  0.44524  1.0000
  O   O107      1.0  0.57655  0.32960  0.44888  1.0000
  O   O108      1.0  0.57352  0.30092  0.51343  1.0000
  H   H162      1.0  0.56705  0.30573  0.56097  1.0000
  C   C373      1.0  0.19523  0.23188  0.34882  1.0000
  C   C374      1.0  0.22537  0.26341  0.35251  1.0000
  C   C375      1.0  0.22844  0.24506  0.40203  1.0000
  C   C376      1.0  0.21341  0.22956  0.39835  1.0000
  H   H163      1.0  0.21544  0.21652  0.43498  1.0000
  C   C377      1.0  0.23982  0.27995  0.34688  1.0000
  C   C378      1.0  0.27183  0.30976  0.33782  1.0000
  C   C379      1.0  0.27557  0.28870  0.34786  1.0000
  N   N115      1.0  0.25997  0.27523  0.35173  1.0000
  H   H164      1.0  0.29003  0.28313  0.35317  1.0000
  C   C380      1.0  0.24481  0.24251  0.45927  1.0000
  O   O109      1.0  0.25535  0.22720  0.45220  1.0000
  O   O110      1.0  0.24409  0.25161  0.53162  1.0000
  H   H165      1.0  0.25311  0.25008  0.57518  1.0000
  C   C381      1.0  0.80912  0.77256  0.34766  1.0000
  C   C382      1.0  0.77908  0.74094  0.35155  1.0000
  C   C383      1.0  0.77594  0.75930  0.40089  1.0000
  C   C384      1.0  0.79092  0.77485  0.39712  1.0000
  H   H166      1.0  0.78885  0.78790  0.43365  1.0000
  C   C385      1.0  0.76469  0.72434  0.34610  1.0000
  C   C386      1.0  0.73280  0.69440  0.33736  1.0000
  C   C387      1.0  0.72898  0.71545  0.34718  1.0000
  N   N116      1.0  0.74453  0.72898  0.35089  1.0000
  H   H167      1.0  0.71450  0.72097  0.35242  1.0000
  C   C388      1.0  0.75955  0.76182  0.45811  1.0000
  O   O111      1.0  0.74897  0.77709  0.45089  1.0000
  O   O112      1.0  0.76032  0.75276  0.53056  1.0000
  H   H168      1.0  0.75129  0.75428  0.57410  1.0000
  C   C389      1.0  0.77243  0.19522  0.34849  1.0000
  C   C390      1.0  0.74089  0.22534  0.35218  1.0000
  C   C391      1.0  0.75924  0.22844  0.40161  1.0000
  C   C392      1.0  0.77476  0.21341  0.39793  1.0000
  H   H169      1.0  0.78781  0.21545  0.43450  1.0000
  C   C393      1.0  0.72433  0.23977  0.34660  1.0000
  C   C394      1.0  0.69448  0.27174  0.33758  1.0000
  C   C395      1.0  0.71554  0.27551  0.34754  1.0000
  N   N117      1.0  0.72903  0.25992  0.35139  1.0000
  H   H170      1.0  0.72109  0.28997  0.35279  1.0000
  C   C396      1.0  0.76180  0.24482  0.45878  1.0000
  O   O113      1.0  0.77710  0.25536  0.45158  1.0000
  O   O114      1.0  0.75272  0.24410  0.53118  1.0000
  H   H171      1.0  0.75426  0.25313  0.57469  1.0000
  C   C397      1.0  0.23176  0.80910  0.34793  1.0000
  C   C398      1.0  0.26336  0.77904  0.35182  1.0000
  C   C399      1.0  0.24501  0.77593  0.40126  1.0000
  C   C400      1.0  0.22947  0.79092  0.39748  1.0000
  H   H172      1.0  0.21642  0.78886  0.43407  1.0000
  C   C401      1.0  0.27994  0.76464  0.34633  1.0000
  C   C402      1.0  0.30984  0.73271  0.33757  1.0000
  C   C403      1.0  0.28879  0.72891  0.34745  1.0000
  N   N118      1.0  0.27527  0.74448  0.35118  1.0000
  H   H173      1.0  0.28325  0.71444  0.35274  1.0000
  C   C404      1.0  0.24249  0.75956  0.45855  1.0000
  O   O115      1.0  0.22721  0.74898  0.45144  1.0000
  O   O116      1.0  0.25157  0.76032  0.53095  1.0000
  H   H174      1.0  0.25005  0.75131  0.57453  1.0000
  C   C405      1.0  0.54043  0.96412  0.34038  1.0000
  C   C406      1.0  0.50929  0.99348  0.34612  1.0000
  C   C407      1.0  0.52640  0.99569  0.40385  1.0000
  C   C408      1.0  0.54194  0.98085  0.39926  1.0000
  H   H175      1.0  0.55413  0.98179  0.44191  1.0000
  C   C409      1.0  0.49288  0.00748  0.34118  1.0000
  C   C410      1.0  0.46299  0.03837  0.33321  1.0000
  C   C411      1.0  0.48394  0.04281  0.34073  1.0000
  N   N119      1.0  0.49767  0.02756  0.34454  1.0000
  H   H176      1.0  0.48918  0.05742  0.34498  1.0000
  C   C412      1.0  0.52748  0.01074  0.46865  1.0000
  O   O117      1.0  0.54303  0.02095  0.47494  1.0000
  O   O118      1.0  0.51618  0.00889  0.53430  1.0000
  H   H177      1.0  0.51652  0.01695  0.58182  1.0000
  C   C413      1.0  0.04033  0.54051  0.34033  1.0000
  C   C414      1.0  0.01095  0.50938  0.34608  1.0000
  C   C415      1.0  0.00875  0.52648  0.40384  1.0000
  C   C416      1.0  0.02360  0.54201  0.39925  1.0000
  H   H178      1.0  0.02266  0.55421  0.44192  1.0000
  C   C417      1.0  0.99695  0.49297  0.34116  1.0000
  C   C418      1.0  0.96605  0.46308  0.33325  1.0000
  C   C419      1.0  0.96161  0.48403  0.34080  1.0000
  N   N120      1.0  0.97686  0.49777  0.34458  1.0000
  H   H179      1.0  0.94701  0.48926  0.34509  1.0000
  C   C420      1.0  0.99371  0.52757  0.46867  1.0000
  O   O119      1.0  0.98350  0.54312  0.47501  1.0000
  O   O120      1.0  0.99556  0.51625  0.53430  1.0000
  H   H180      1.0  0.98750  0.51659  0.58183  1.0000
