data_image0
_chemical_formula_structural       C8H3C3NO2C2HOC2HOC3NO2C8H3C3NO2C2HOC2HOC3NO2HC3HNOCNOC3HNOC6HC2H2C6HC2H2CNOC3HNOHC3HNOHC3HNOCNOC3HNOC6HC2H2C6HC2H2CNOC3HNOHC3HNO3C7HCHC8H2O4C7HCHC8H2O2C7HCH2C3HNO2C3HNO2H2C3HNO2C3HNO2C7HCH2C3HNO2C3HNO2H2C3HNO2C3HNO2C8HC7HCH4C3HNO2C3HNO2C3HNO2C3HNO2C3HNO2C3HNO2C8HC7HCH4C8HC7HCH4C3HNO2C3HNO2C3HNO2C3HNO2C3HNO2C3HNO2C8HC7HCH4C3HNO2C3HNO2C3HNO2C3HNO2C3HNO2C3HNO2C8HC7HCH4C8HC7HCH4C3HNO2C3HNO2C3HNO2C3HNO2C3HNO2C3HNO2
_chemical_formula_sum              "C336 H120 N48 O96"
_cell_length_a       46.7398
_cell_length_b       46.7398
_cell_length_c       14.7914
_cell_angle_alpha    89.998
_cell_angle_beta     90.002
_cell_angle_gamma    120

_space_group_name_H-M_alt    "P 1"
_space_group_IT_number       1

loop_
  _space_group_symop_operation_xyz
  'x, y, z'

loop_
  _atom_site_type_symbol
  _atom_site_label
  _atom_site_symmetry_multiplicity
  _atom_site_fract_x
  _atom_site_fract_y
  _atom_site_fract_z
  _atom_site_occupancy
  C   C1        1.0  0.02875  0.26528  0.34843  1.0000
  C   C2        1.0  0.04655  0.30066  0.34847  1.0000
  C   C3        1.0  0.08176  0.31829  0.34851  1.0000
  C   C4        1.0  0.09842  0.30011  0.34848  1.0000
  C   C5        1.0  0.08176  0.26527  0.34839  1.0000
  C   C6        1.0  0.04655  0.24769  0.34840  1.0000
  C   C7        1.0  0.02833  0.31735  0.34851  1.0000
  C   C8        1.0  0.02833  0.21279  0.34837  1.0000
  H   H1        1.0  0.12384  0.31282  0.34850  1.0000
  H   H2        1.0  0.04016  0.34261  0.34853  1.0000
  H   H3        1.0  0.04016  0.19936  0.34837  1.0000
  C   C9        1.0  0.10238  0.25095  0.34684  1.0000
  C   C10       1.0  0.11852  0.25118  0.26526  1.0000
  C   C11       1.0  0.14852  0.25050  0.26797  1.0000
  N   N1        1.0  0.10551  0.25470  0.18211  1.0000
  O   O1        1.0  0.09873  0.23094  0.12990  1.0000
  O   O2        1.0  0.12527  0.28118  0.14273  1.0000
  C   C12       1.0  0.14832  0.39880  0.26523  1.0000
  C   C13       1.0  0.11766  0.36878  0.26783  1.0000
  H   H4        1.0  0.10815  0.35643  0.20825  1.0000
  O   O3        1.0  0.14788  0.41856  0.12980  1.0000
  C   C14       1.0  0.14831  0.25135  0.43192  1.0000
  C   C15       1.0  0.11765  0.25070  0.42928  1.0000
  H   H5        1.0  0.10820  0.25368  0.48880  1.0000
  O   O4        1.0  0.14792  0.23131  0.56753  1.0000
  C   C16       1.0  0.10238  0.35322  0.35023  1.0000
  C   C17       1.0  0.11856  0.36906  0.43184  1.0000
  C   C18       1.0  0.14863  0.39967  0.42916  1.0000
  N   N2        1.0  0.10554  0.35251  0.51496  1.0000
  O   O5        1.0  0.09884  0.36952  0.56729  1.0000
  O   O6        1.0  0.12525  0.34570  0.55423  1.0000
  C   C19       1.0  0.02875  0.76528  0.34843  1.0000
  C   C20       1.0  0.04655  0.80066  0.34847  1.0000
  C   C21       1.0  0.08176  0.81829  0.34851  1.0000
  C   C22       1.0  0.09842  0.80011  0.34848  1.0000
  C   C23       1.0  0.08176  0.76527  0.34839  1.0000
  C   C24       1.0  0.04655  0.74769  0.34840  1.0000
  C   C25       1.0  0.02833  0.81735  0.34851  1.0000
  C   C26       1.0  0.02833  0.71279  0.34837  1.0000
  H   H6        1.0  0.12384  0.81282  0.34850  1.0000
  H   H7        1.0  0.04016  0.84261  0.34853  1.0000
  H   H8        1.0  0.04016  0.69936  0.34837  1.0000
  C   C27       1.0  0.10238  0.75095  0.34684  1.0000
  C   C28       1.0  0.11852  0.75117  0.26526  1.0000
  C   C29       1.0  0.14852  0.75050  0.26797  1.0000
  N   N3        1.0  0.10551  0.75470  0.18211  1.0000
  O   O7        1.0  0.09873  0.73094  0.12990  1.0000
  O   O8        1.0  0.12527  0.78118  0.14273  1.0000
  C   C30       1.0  0.14832  0.89880  0.26523  1.0000
  C   C31       1.0  0.11766  0.86878  0.26783  1.0000
  H   H9        1.0  0.10815  0.85643  0.20825  1.0000
  O   O9        1.0  0.14788  0.91856  0.12980  1.0000
  C   C32       1.0  0.14831  0.75135  0.43192  1.0000
  C   C33       1.0  0.11765  0.75070  0.42928  1.0000
  H   H10       1.0  0.10820  0.75368  0.48880  1.0000
  O   O10       1.0  0.14792  0.73131  0.56753  1.0000
  C   C34       1.0  0.10238  0.85322  0.35023  1.0000
  C   C35       1.0  0.11856  0.86906  0.43184  1.0000
  C   C36       1.0  0.14863  0.89967  0.42916  1.0000
  N   N4        1.0  0.10554  0.85251  0.51496  1.0000
  O   O11       1.0  0.09884  0.86952  0.56729  1.0000
  O   O12       1.0  0.12525  0.84570  0.55423  1.0000
  H   H11       1.0  0.16087  0.25337  0.20838  1.0000
  C   C37       1.0  0.26639  0.35320  0.34728  1.0000
  C   C38       1.0  0.26607  0.36898  0.26546  1.0000
  C   C39       1.0  0.26674  0.39966  0.26787  1.0000
  H   H12       1.0  0.26379  0.40907  0.20825  1.0000
  N   N5        1.0  0.26252  0.35239  0.18239  1.0000
  O   O13       1.0  0.23602  0.34562  0.14304  1.0000
  C   C40       1.0  0.16422  0.41498  0.34682  1.0000
  N   N6        1.0  0.16486  0.41180  0.18208  1.0000
  O   O14       1.0  0.17161  0.39205  0.14276  1.0000
  C   C41       1.0  0.25558  0.15954  0.34721  1.0000
  C   C42       1.0  0.25574  0.14366  0.26542  1.0000
  C   C43       1.0  0.25509  0.11300  0.26774  1.0000
  H   H13       1.0  0.25796  0.10357  0.20806  1.0000
  N   N7        1.0  0.25917  0.16023  0.18236  1.0000
  O   O15       1.0  0.23537  0.14326  0.13026  1.0000
  C   C44       1.0  0.25211  0.26524  0.34842  1.0000
  C   C45       1.0  0.21672  0.24765  0.34850  1.0000
  C   C46       1.0  0.19909  0.26523  0.34873  1.0000
  C   C47       1.0  0.21727  0.30008  0.34880  1.0000
  C   C48       1.0  0.25211  0.31826  0.34852  1.0000
  C   C49       1.0  0.20003  0.21275  0.34853  1.0000
  H   H14       1.0  0.20455  0.31279  0.34896  1.0000
  C   C50       1.0  0.25228  0.21210  0.34841  1.0000
  C   C51       1.0  0.21738  0.19541  0.34834  1.0000
  H   H15       1.0  0.20395  0.17015  0.34836  1.0000
  H   H16       1.0  0.17477  0.19932  0.34859  1.0000
  C   C52       1.0  0.25216  0.48861  0.34850  1.0000
  C   C53       1.0  0.25217  0.43559  0.34861  1.0000
  C   C54       1.0  0.21732  0.41893  0.34845  1.0000
  C   C55       1.0  0.19914  0.43560  0.34835  1.0000
  C   C56       1.0  0.21677  0.47081  0.34839  1.0000
  C   C57       1.0  0.20008  0.48902  0.34829  1.0000
  H   H17       1.0  0.20461  0.39351  0.34844  1.0000
  C   C58       1.0  0.25232  0.04192  0.34846  1.0000
  C   C59       1.0  0.21742  0.02370  0.34847  1.0000
  H   H18       1.0  0.20399  0.03553  0.34845  1.0000
  H   H19       1.0  0.17482  0.47719  0.34823  1.0000
  C   C60       1.0  0.16416  0.25094  0.35036  1.0000
  N   N8        1.0  0.16488  0.25498  0.51506  1.0000
  O   O16       1.0  0.17166  0.28153  0.55414  1.0000
  C   C61       1.0  0.26647  0.41496  0.35022  1.0000
  C   C62       1.0  0.26622  0.39891  0.43203  1.0000
  C   C63       1.0  0.26677  0.36885  0.42952  1.0000
  H   H20       1.0  0.26397  0.35654  0.48916  1.0000
  N   N9        1.0  0.26276  0.41202  0.51507  1.0000
  O   O17       1.0  0.23628  0.39235  0.55458  1.0000
  H   H21       1.0  0.16096  0.40918  0.48876  1.0000
  C   C64       1.0  0.25561  0.09777  0.34993  1.0000
  C   C65       1.0  0.25600  0.11389  0.43178  1.0000
  C   C66       1.0  0.25534  0.14390  0.42940  1.0000
  H   H22       1.0  0.25834  0.15627  0.48901  1.0000
  N   N10       1.0  0.25964  0.10088  0.51480  1.0000
  O   O18       1.0  0.23595  0.09410  0.56729  1.0000
  H   H23       1.0  0.16087  0.75337  0.20838  1.0000
  C   C67       1.0  0.26639  0.85320  0.34728  1.0000
  C   C68       1.0  0.26607  0.86898  0.26546  1.0000
  C   C69       1.0  0.26674  0.89966  0.26787  1.0000
  H   H24       1.0  0.26379  0.90907  0.20825  1.0000
  N   N11       1.0  0.26252  0.85239  0.18239  1.0000
  O   O19       1.0  0.23602  0.84562  0.14304  1.0000
  C   C70       1.0  0.16422  0.91498  0.34682  1.0000
  N   N12       1.0  0.16486  0.91180  0.18208  1.0000
  O   O20       1.0  0.17161  0.89205  0.14276  1.0000
  C   C71       1.0  0.25558  0.65954  0.34721  1.0000
  C   C72       1.0  0.25574  0.64366  0.26542  1.0000
  C   C73       1.0  0.25509  0.61300  0.26774  1.0000
  H   H25       1.0  0.25796  0.60357  0.20806  1.0000
  N   N13       1.0  0.25917  0.66022  0.18236  1.0000
  O   O21       1.0  0.23537  0.64326  0.13026  1.0000
  C   C74       1.0  0.25211  0.76524  0.34842  1.0000
  C   C75       1.0  0.21672  0.74765  0.34850  1.0000
  C   C76       1.0  0.19909  0.76524  0.34873  1.0000
  C   C77       1.0  0.21727  0.80008  0.34880  1.0000
  C   C78       1.0  0.25211  0.81826  0.34852  1.0000
  C   C79       1.0  0.20003  0.71275  0.34853  1.0000
  H   H26       1.0  0.20455  0.81279  0.34896  1.0000
  C   C80       1.0  0.25228  0.71210  0.34841  1.0000
  C   C81       1.0  0.21738  0.69541  0.34834  1.0000
  H   H27       1.0  0.20395  0.67015  0.34836  1.0000
  H   H28       1.0  0.17477  0.69932  0.34859  1.0000
  C   C82       1.0  0.25216  0.98861  0.34850  1.0000
  C   C83       1.0  0.25217  0.93559  0.34861  1.0000
  C   C84       1.0  0.21732  0.91893  0.34845  1.0000
  C   C85       1.0  0.19915  0.93560  0.34835  1.0000
  C   C86       1.0  0.21677  0.97081  0.34839  1.0000
  C   C87       1.0  0.20009  0.98902  0.34829  1.0000
  H   H29       1.0  0.20461  0.89351  0.34844  1.0000
  C   C88       1.0  0.25232  0.54192  0.34846  1.0000
  C   C89       1.0  0.21742  0.52370  0.34847  1.0000
  H   H30       1.0  0.20399  0.53554  0.34845  1.0000
  H   H31       1.0  0.17482  0.97719  0.34823  1.0000
  C   C90       1.0  0.16416  0.75094  0.35036  1.0000
  N   N14       1.0  0.16488  0.75498  0.51506  1.0000
  O   O22       1.0  0.17166  0.78153  0.55414  1.0000
  C   C91       1.0  0.26647  0.91496  0.35022  1.0000
  C   C92       1.0  0.26622  0.89891  0.43203  1.0000
  C   C93       1.0  0.26677  0.86885  0.42952  1.0000
  H   H32       1.0  0.26397  0.85654  0.48916  1.0000
  N   N15       1.0  0.26276  0.91202  0.51507  1.0000
  O   O23       1.0  0.23628  0.89235  0.55458  1.0000
  H   H33       1.0  0.16096  0.90918  0.48876  1.0000
  C   C94       1.0  0.25561  0.59777  0.34993  1.0000
  C   C95       1.0  0.25600  0.61389  0.43178  1.0000
  C   C96       1.0  0.25534  0.64390  0.42940  1.0000
  H   H34       1.0  0.25834  0.65627  0.48901  1.0000
  N   N16       1.0  0.25964  0.60088  0.51480  1.0000
  O   O24       1.0  0.23595  0.59410  0.56729  1.0000
  O   O25       1.0  0.28625  0.36933  0.13007  1.0000
  O   O26       1.0  0.28563  0.16700  0.14274  1.0000
  C   C97       1.0  0.26969  0.30063  0.34842  1.0000
  C   C98       1.0  0.30459  0.31732  0.34833  1.0000
  C   C99       1.0  0.26986  0.24749  0.34842  1.0000
  C   C100      1.0  0.26986  0.19447  0.34853  1.0000
  C   C101      1.0  0.30470  0.21265  0.34870  1.0000
  C   C102      1.0  0.32288  0.24749  0.34875  1.0000
  C   C103      1.0  0.30525  0.26508  0.34848  1.0000
  H   H35       1.0  0.31741  0.19994  0.34876  1.0000
  C   C104      1.0  0.32193  0.29998  0.34850  1.0000
  H   H36       1.0  0.31802  0.34258  0.34834  1.0000
  C   C105      1.0  0.26975  0.47081  0.34862  1.0000
  C   C106      1.0  0.30465  0.48902  0.34876  1.0000
  C   C107      1.0  0.26991  0.02412  0.34848  1.0000
  C   C108      1.0  0.30530  0.04192  0.34850  1.0000
  C   C109      1.0  0.32292  0.07713  0.34834  1.0000
  C   C110      1.0  0.30474  0.09379  0.34838  1.0000
  C   C111      1.0  0.26990  0.07713  0.34852  1.0000
  C   C112      1.0  0.32198  0.02371  0.34856  1.0000
  H   H37       1.0  0.31745  0.11921  0.34836  1.0000
  H   H38       1.0  0.31808  0.47720  0.34883  1.0000
  O   O27       1.0  0.28653  0.41879  0.56725  1.0000
  O   O28       1.0  0.28617  0.12062  0.55397  1.0000
  O   O29       1.0  0.28625  0.86933  0.13007  1.0000
  O   O30       1.0  0.28563  0.66700  0.14274  1.0000
  C   C113      1.0  0.26969  0.80063  0.34842  1.0000
  C   C114      1.0  0.30459  0.81732  0.34833  1.0000
  C   C115      1.0  0.26986  0.74749  0.34842  1.0000
  C   C116      1.0  0.26986  0.69447  0.34853  1.0000
  C   C117      1.0  0.30470  0.71265  0.34870  1.0000
  C   C118      1.0  0.32288  0.74749  0.34875  1.0000
  C   C119      1.0  0.30525  0.76508  0.34848  1.0000
  H   H39       1.0  0.31741  0.69994  0.34876  1.0000
  C   C120      1.0  0.32193  0.79998  0.34850  1.0000
  H   H40       1.0  0.31802  0.84258  0.34834  1.0000
  C   C121      1.0  0.26975  0.97081  0.34862  1.0000
  C   C122      1.0  0.30465  0.98902  0.34876  1.0000
  C   C123      1.0  0.26991  0.52412  0.34848  1.0000
  C   C124      1.0  0.30530  0.54192  0.34850  1.0000
  C   C125      1.0  0.32292  0.57713  0.34834  1.0000
  C   C126      1.0  0.30474  0.59379  0.34838  1.0000
  C   C127      1.0  0.26990  0.57713  0.34852  1.0000
  C   C128      1.0  0.32199  0.52371  0.34856  1.0000
  H   H41       1.0  0.31745  0.61922  0.34836  1.0000
  H   H42       1.0  0.31808  0.97719  0.34883  1.0000
  O   O31       1.0  0.28653  0.91879  0.56725  1.0000
  O   O32       1.0  0.28617  0.62062  0.55397  1.0000
  C   C129      1.0  0.49324  0.24752  0.34846  1.0000
  C   C130      1.0  0.47544  0.26511  0.34843  1.0000
  C   C131      1.0  0.44022  0.24753  0.34862  1.0000
  C   C132      1.0  0.42356  0.21268  0.34871  1.0000
  C   C133      1.0  0.44023  0.19451  0.34867  1.0000
  C   C134      1.0  0.47544  0.21214  0.34856  1.0000
  C   C135      1.0  0.49365  0.30001  0.34834  1.0000
  H   H43       1.0  0.39814  0.19997  0.34878  1.0000
  C   C136      1.0  0.49365  0.19545  0.34859  1.0000
  H   H44       1.0  0.48182  0.31344  0.34837  1.0000
  H   H45       1.0  0.48182  0.17019  0.34865  1.0000
  C   C137      1.0  0.41960  0.26184  0.34706  1.0000
  C   C138      1.0  0.40359  0.26176  0.26536  1.0000
  C   C139      1.0  0.37355  0.26236  0.26787  1.0000
  H   H46       1.0  0.36126  0.25963  0.20824  1.0000
  N   N17       1.0  0.41673  0.25841  0.18226  1.0000
  O   O33       1.0  0.42355  0.28225  0.13034  1.0000
  O   O34       1.0  0.39706  0.23199  0.14247  1.0000
  C   C140      1.0  0.35784  0.09777  0.34709  1.0000
  C   C141      1.0  0.37371  0.11397  0.26543  1.0000
  C   C142      1.0  0.40436  0.14399  0.26799  1.0000
  H   H47       1.0  0.41379  0.15636  0.20840  1.0000
  N   N18       1.0  0.35718  0.10095  0.18227  1.0000
  O   O35       1.0  0.37417  0.09421  0.13000  1.0000
  O   O36       1.0  0.35039  0.12067  0.14295  1.0000
  H   H48       1.0  0.34720  0.31341  0.34856  1.0000
  H   H49       1.0  0.34725  0.03554  0.34857  1.0000
  C   C143      1.0  0.35781  0.26178  0.35015  1.0000
  C   C144      1.0  0.37352  0.26127  0.43191  1.0000
  C   C145      1.0  0.40418  0.26190  0.42940  1.0000
  H   H50       1.0  0.41355  0.25889  0.48900  1.0000
  N   N19       1.0  0.35688  0.25758  0.51498  1.0000
  O   O37       1.0  0.37381  0.28122  0.56760  1.0000
  O   O38       1.0  0.35007  0.23101  0.55396  1.0000
  C   C146      1.0  0.41962  0.15957  0.35038  1.0000
  C   C147      1.0  0.40349  0.14371  0.43203  1.0000
  C   C148      1.0  0.37347  0.11307  0.42938  1.0000
  H   H51       1.0  0.36114  0.10355  0.48897  1.0000
  N   N20       1.0  0.41651  0.16027  0.51514  1.0000
  O   O39       1.0  0.42327  0.14329  0.56741  1.0000
  O   O40       1.0  0.39677  0.16703  0.55448  1.0000
  C   C149      1.0  0.49324  0.74752  0.34846  1.0000
  C   C150      1.0  0.47544  0.76511  0.34843  1.0000
  C   C151      1.0  0.44022  0.74753  0.34862  1.0000
  C   C152      1.0  0.42356  0.71268  0.34871  1.0000
  C   C153      1.0  0.44023  0.69451  0.34867  1.0000
  C   C154      1.0  0.47544  0.71214  0.34856  1.0000
  C   C155      1.0  0.49365  0.80001  0.34834  1.0000
  H   H52       1.0  0.39814  0.69997  0.34878  1.0000
  C   C156      1.0  0.49365  0.69545  0.34859  1.0000
  H   H53       1.0  0.48182  0.81344  0.34837  1.0000
  H   H54       1.0  0.48182  0.67019  0.34865  1.0000
  C   C157      1.0  0.41960  0.76183  0.34706  1.0000
  C   C158      1.0  0.40359  0.76176  0.26536  1.0000
  C   C159      1.0  0.37355  0.76236  0.26787  1.0000
  H   H55       1.0  0.36127  0.75963  0.20824  1.0000
  N   N21       1.0  0.41673  0.75841  0.18226  1.0000
  O   O41       1.0  0.42355  0.78225  0.13034  1.0000
  O   O42       1.0  0.39706  0.73199  0.14247  1.0000
  C   C160      1.0  0.35785  0.59777  0.34709  1.0000
  C   C161      1.0  0.37371  0.61397  0.26543  1.0000
  C   C162      1.0  0.40436  0.64400  0.26799  1.0000
  H   H56       1.0  0.41379  0.65636  0.20840  1.0000
  N   N22       1.0  0.35718  0.60095  0.18227  1.0000
  O   O43       1.0  0.37417  0.59421  0.13000  1.0000
  O   O44       1.0  0.35039  0.62067  0.14295  1.0000
  H   H57       1.0  0.34720  0.81341  0.34856  1.0000
  H   H58       1.0  0.34725  0.53554  0.34857  1.0000
  C   C163      1.0  0.35781  0.76179  0.35015  1.0000
  C   C164      1.0  0.37352  0.76127  0.43191  1.0000
  C   C165      1.0  0.40418  0.76190  0.42940  1.0000
  H   H59       1.0  0.41356  0.75889  0.48900  1.0000
  N   N23       1.0  0.35688  0.75758  0.51498  1.0000
  O   O45       1.0  0.37381  0.78122  0.56760  1.0000
  O   O46       1.0  0.35007  0.73101  0.55396  1.0000
  C   C166      1.0  0.41962  0.65957  0.35038  1.0000
  C   C167      1.0  0.40349  0.64371  0.43203  1.0000
  C   C168      1.0  0.37347  0.61307  0.42938  1.0000
  H   H60       1.0  0.36114  0.60355  0.48897  1.0000
  N   N24       1.0  0.41651  0.66027  0.51514  1.0000
  O   O47       1.0  0.42327  0.64329  0.56741  1.0000
  O   O48       1.0  0.39677  0.66703  0.55448  1.0000
  C   C169      1.0  0.52875  0.26528  0.34843  1.0000
  C   C170      1.0  0.54655  0.30066  0.34847  1.0000
  C   C171      1.0  0.58176  0.31829  0.34851  1.0000
  C   C172      1.0  0.59842  0.30011  0.34848  1.0000
  C   C173      1.0  0.58176  0.26527  0.34839  1.0000
  C   C174      1.0  0.54655  0.24769  0.34840  1.0000
  C   C175      1.0  0.52833  0.31735  0.34851  1.0000
  C   C176      1.0  0.52833  0.21279  0.34837  1.0000
  H   H61       1.0  0.62384  0.31282  0.34850  1.0000
  C   C177      1.0  0.99323  0.24752  0.34846  1.0000
  C   C178      1.0  0.97543  0.26511  0.34843  1.0000
  C   C179      1.0  0.94022  0.24753  0.34862  1.0000
  C   C180      1.0  0.92356  0.21268  0.34871  1.0000
  C   C181      1.0  0.94023  0.19451  0.34867  1.0000
  C   C182      1.0  0.97544  0.21214  0.34856  1.0000
  C   C183      1.0  0.99365  0.30001  0.34834  1.0000
  H   H62       1.0  0.89814  0.19997  0.34878  1.0000
  C   C184      1.0  0.99365  0.19545  0.34859  1.0000
  H   H63       1.0  0.98182  0.31344  0.34837  1.0000
  H   H64       1.0  0.54016  0.34261  0.34853  1.0000
  H   H65       1.0  0.98182  0.17019  0.34865  1.0000
  H   H66       1.0  0.54016  0.19936  0.34837  1.0000
  C   C185      1.0  0.60238  0.25095  0.34684  1.0000
  C   C186      1.0  0.61852  0.25118  0.26526  1.0000
  C   C187      1.0  0.64852  0.25050  0.26797  1.0000
  H   H67       1.0  0.66087  0.25337  0.20838  1.0000
  N   N25       1.0  0.60551  0.25470  0.18211  1.0000
  O   O49       1.0  0.59873  0.23094  0.12990  1.0000
  O   O50       1.0  0.62527  0.28118  0.14273  1.0000
  C   C188      1.0  0.76639  0.35320  0.34728  1.0000
  C   C189      1.0  0.76607  0.36898  0.26546  1.0000
  C   C190      1.0  0.76674  0.39966  0.26787  1.0000
  H   H68       1.0  0.76379  0.40907  0.20825  1.0000
  N   N26       1.0  0.76252  0.35239  0.18239  1.0000
  O   O51       1.0  0.78625  0.36933  0.13007  1.0000
  O   O52       1.0  0.73602  0.34562  0.14304  1.0000
  C   C191      1.0  0.66422  0.41498  0.34682  1.0000
  C   C192      1.0  0.64832  0.39880  0.26523  1.0000
  C   C193      1.0  0.61766  0.36878  0.26783  1.0000
  H   H69       1.0  0.60815  0.35643  0.20825  1.0000
  N   N27       1.0  0.66486  0.41180  0.18208  1.0000
  O   O53       1.0  0.64788  0.41856  0.12980  1.0000
  O   O54       1.0  0.67161  0.39205  0.14276  1.0000
  C   C194      1.0  0.91960  0.26184  0.34706  1.0000
  C   C195      1.0  0.90358  0.26176  0.26536  1.0000
  C   C196      1.0  0.87355  0.26236  0.26787  1.0000
  H   H70       1.0  0.86127  0.25963  0.20824  1.0000
  N   N28       1.0  0.91673  0.25841  0.18226  1.0000
  O   O55       1.0  0.92356  0.28225  0.13034  1.0000
  O   O56       1.0  0.89706  0.23199  0.14247  1.0000
  C   C197      1.0  0.75558  0.15954  0.34721  1.0000
  C   C198      1.0  0.75574  0.14366  0.26542  1.0000
  C   C199      1.0  0.75509  0.11300  0.26774  1.0000
  H   H71       1.0  0.75796  0.10357  0.20806  1.0000
  N   N29       1.0  0.75917  0.16023  0.18236  1.0000
  O   O57       1.0  0.73537  0.14326  0.13026  1.0000
  O   O58       1.0  0.78563  0.16700  0.14274  1.0000
  C   C200      1.0  0.85784  0.09777  0.34709  1.0000
  C   C201      1.0  0.87371  0.11397  0.26543  1.0000
  C   C202      1.0  0.90436  0.14399  0.26799  1.0000
  H   H72       1.0  0.91379  0.15636  0.20840  1.0000
  N   N30       1.0  0.85718  0.10095  0.18227  1.0000
  O   O59       1.0  0.87417  0.09421  0.13000  1.0000
  O   O60       1.0  0.85039  0.12067  0.14295  1.0000
  C   C203      1.0  0.75211  0.26524  0.34842  1.0000
  C   C204      1.0  0.71672  0.24765  0.34850  1.0000
  C   C205      1.0  0.69909  0.26523  0.34873  1.0000
  C   C206      1.0  0.71727  0.30008  0.34880  1.0000
  C   C207      1.0  0.75211  0.31826  0.34852  1.0000
  C   C208      1.0  0.76969  0.30063  0.34842  1.0000
  C   C209      1.0  0.70003  0.21275  0.34853  1.0000
  C   C210      1.0  0.80459  0.31732  0.34833  1.0000
  H   H73       1.0  0.70455  0.31279  0.34896  1.0000
  C   C211      1.0  0.76986  0.24749  0.34842  1.0000
  C   C212      1.0  0.75228  0.21210  0.34841  1.0000
  C   C213      1.0  0.76986  0.19447  0.34853  1.0000
  C   C214      1.0  0.80470  0.21265  0.34870  1.0000
  C   C215      1.0  0.82288  0.24749  0.34875  1.0000
  C   C216      1.0  0.80525  0.26508  0.34848  1.0000
  C   C217      1.0  0.71737  0.19541  0.34834  1.0000
  H   H74       1.0  0.81741  0.19994  0.34876  1.0000
  C   C218      1.0  0.82193  0.29998  0.34850  1.0000
  H   H75       1.0  0.70395  0.17015  0.34836  1.0000
  H   H76       1.0  0.67477  0.19932  0.34859  1.0000
  H   H77       1.0  0.84720  0.31341  0.34856  1.0000
  H   H78       1.0  0.81802  0.34258  0.34834  1.0000
  C   C219      1.0  0.75216  0.48861  0.34850  1.0000
  C   C220      1.0  0.76975  0.47081  0.34862  1.0000
  C   C221      1.0  0.75217  0.43559  0.34861  1.0000
  C   C222      1.0  0.71732  0.41893  0.34845  1.0000
  C   C223      1.0  0.69914  0.43560  0.34835  1.0000
  C   C224      1.0  0.71677  0.47081  0.34839  1.0000
  C   C225      1.0  0.80465  0.48902  0.34876  1.0000
  C   C226      1.0  0.70008  0.48902  0.34829  1.0000
  H   H79       1.0  0.70461  0.39351  0.34844  1.0000
  C   C227      1.0  0.76991  0.02412  0.34848  1.0000
  C   C228      1.0  0.80530  0.04192  0.34850  1.0000
  C   C229      1.0  0.82292  0.07713  0.34834  1.0000
  C   C230      1.0  0.80474  0.09379  0.34838  1.0000
  C   C231      1.0  0.76990  0.07713  0.34852  1.0000
  C   C232      1.0  0.75232  0.04192  0.34846  1.0000
  C   C233      1.0  0.82198  0.02371  0.34856  1.0000
  H   H80       1.0  0.81745  0.11921  0.34836  1.0000
  C   C234      1.0  0.71742  0.02370  0.34847  1.0000
  H   H81       1.0  0.84725  0.03554  0.34857  1.0000
  H   H82       1.0  0.81808  0.47720  0.34883  1.0000
  H   H83       1.0  0.70399  0.03553  0.34845  1.0000
  H   H84       1.0  0.67482  0.47719  0.34823  1.0000
  C   C235      1.0  0.66416  0.25094  0.35036  1.0000
  C   C236      1.0  0.64831  0.25135  0.43192  1.0000
  C   C237      1.0  0.61764  0.25070  0.42928  1.0000
  H   H85       1.0  0.60820  0.25368  0.48880  1.0000
  N   N31       1.0  0.66488  0.25498  0.51506  1.0000
  O   O61       1.0  0.64792  0.23131  0.56753  1.0000
  O   O62       1.0  0.67166  0.28153  0.55414  1.0000
  C   C238      1.0  0.76647  0.41496  0.35022  1.0000
  C   C239      1.0  0.76621  0.39891  0.43203  1.0000
  C   C240      1.0  0.76677  0.36885  0.42952  1.0000
  H   H86       1.0  0.76397  0.35654  0.48916  1.0000
  N   N32       1.0  0.76276  0.41202  0.51507  1.0000
  O   O63       1.0  0.78653  0.41879  0.56725  1.0000
  O   O64       1.0  0.73628  0.39235  0.55458  1.0000
  C   C241      1.0  0.60238  0.35322  0.35023  1.0000
  C   C242      1.0  0.61856  0.36906  0.43184  1.0000
  C   C243      1.0  0.64863  0.39967  0.42916  1.0000
  H   H87       1.0  0.66096  0.40918  0.48876  1.0000
  N   N33       1.0  0.60553  0.35251  0.51496  1.0000
  O   O65       1.0  0.59884  0.36952  0.56729  1.0000
  O   O66       1.0  0.62525  0.34570  0.55423  1.0000
  C   C244      1.0  0.85781  0.26178  0.35015  1.0000
  C   C245      1.0  0.87352  0.26127  0.43191  1.0000
  C   C246      1.0  0.90418  0.26190  0.42940  1.0000
  H   H88       1.0  0.91355  0.25889  0.48900  1.0000
  N   N34       1.0  0.85688  0.25758  0.51498  1.0000
  O   O67       1.0  0.87381  0.28122  0.56760  1.0000
  O   O68       1.0  0.85007  0.23101  0.55396  1.0000
  C   C247      1.0  0.75561  0.09777  0.34993  1.0000
  C   C248      1.0  0.75600  0.11389  0.43178  1.0000
  C   C249      1.0  0.75534  0.14390  0.42940  1.0000
  H   H89       1.0  0.75834  0.15627  0.48901  1.0000
  N   N35       1.0  0.75963  0.10088  0.51480  1.0000
  O   O69       1.0  0.73595  0.09410  0.56729  1.0000
  O   O70       1.0  0.78617  0.12062  0.55397  1.0000
  C   C250      1.0  0.91962  0.15957  0.35038  1.0000
  C   C251      1.0  0.90349  0.14371  0.43203  1.0000
  C   C252      1.0  0.87347  0.11307  0.42938  1.0000
  H   H90       1.0  0.86114  0.10355  0.48897  1.0000
  N   N36       1.0  0.91651  0.16027  0.51514  1.0000
  O   O71       1.0  0.92327  0.14329  0.56741  1.0000
  O   O72       1.0  0.89677  0.16703  0.55448  1.0000
  C   C253      1.0  0.52875  0.76528  0.34843  1.0000
  C   C254      1.0  0.54655  0.80066  0.34847  1.0000
  C   C255      1.0  0.58176  0.81829  0.34851  1.0000
  C   C256      1.0  0.59842  0.80011  0.34848  1.0000
  C   C257      1.0  0.58176  0.76527  0.34839  1.0000
  C   C258      1.0  0.54655  0.74769  0.34840  1.0000
  C   C259      1.0  0.52833  0.81735  0.34851  1.0000
  C   C260      1.0  0.52833  0.71279  0.34837  1.0000
  H   H91       1.0  0.62384  0.81282  0.34850  1.0000
  C   C261      1.0  0.99324  0.74752  0.34846  1.0000
  C   C262      1.0  0.97544  0.76511  0.34843  1.0000
  C   C263      1.0  0.94022  0.74753  0.34862  1.0000
  C   C264      1.0  0.92356  0.71268  0.34871  1.0000
  C   C265      1.0  0.94023  0.69451  0.34867  1.0000
  C   C266      1.0  0.97544  0.71214  0.34856  1.0000
  C   C267      1.0  0.99365  0.80001  0.34834  1.0000
  H   H92       1.0  0.89814  0.69997  0.34878  1.0000
  C   C268      1.0  0.99365  0.69545  0.34859  1.0000
  H   H93       1.0  0.98182  0.81344  0.34837  1.0000
  H   H94       1.0  0.54016  0.84261  0.34853  1.0000
  H   H95       1.0  0.98182  0.67019  0.34865  1.0000
  H   H96       1.0  0.54016  0.69936  0.34837  1.0000
  C   C269      1.0  0.60238  0.75095  0.34684  1.0000
  C   C270      1.0  0.61852  0.75117  0.26526  1.0000
  C   C271      1.0  0.64852  0.75050  0.26797  1.0000
  H   H97       1.0  0.66087  0.75337  0.20838  1.0000
  N   N37       1.0  0.60551  0.75470  0.18211  1.0000
  O   O73       1.0  0.59873  0.73094  0.12990  1.0000
  O   O74       1.0  0.62527  0.78118  0.14273  1.0000
  C   C272      1.0  0.76639  0.85320  0.34728  1.0000
  C   C273      1.0  0.76607  0.86898  0.26546  1.0000
  C   C274      1.0  0.76674  0.89966  0.26787  1.0000
  H   H98       1.0  0.76379  0.90907  0.20825  1.0000
  N   N38       1.0  0.76252  0.85239  0.18239  1.0000
  O   O75       1.0  0.78625  0.86933  0.13007  1.0000
  O   O76       1.0  0.73602  0.84562  0.14304  1.0000
  C   C275      1.0  0.66422  0.91498  0.34682  1.0000
  C   C276      1.0  0.64832  0.89880  0.26523  1.0000
  C   C277      1.0  0.61766  0.86878  0.26783  1.0000
  H   H99       1.0  0.60815  0.85643  0.20825  1.0000
  N   N39       1.0  0.66486  0.91180  0.18208  1.0000
  O   O77       1.0  0.64788  0.91856  0.12980  1.0000
  O   O78       1.0  0.67161  0.89205  0.14276  1.0000
  C   C278      1.0  0.91959  0.76183  0.34706  1.0000
  C   C279      1.0  0.90358  0.76176  0.26536  1.0000
  C   C280      1.0  0.87355  0.76236  0.26787  1.0000
  H   H100      1.0  0.86126  0.75963  0.20824  1.0000
  N   N40       1.0  0.91673  0.75841  0.18226  1.0000
  O   O79       1.0  0.92355  0.78225  0.13034  1.0000
  O   O80       1.0  0.89706  0.73199  0.14247  1.0000
  C   C281      1.0  0.75558  0.65954  0.34721  1.0000
  C   C282      1.0  0.75574  0.64366  0.26542  1.0000
  C   C283      1.0  0.75509  0.61300  0.26774  1.0000
  H   H101      1.0  0.75796  0.60357  0.20806  1.0000
  N   N41       1.0  0.75917  0.66022  0.18236  1.0000
  O   O81       1.0  0.73537  0.64326  0.13026  1.0000
  O   O82       1.0  0.78563  0.66700  0.14274  1.0000
  C   C284      1.0  0.85785  0.59777  0.34709  1.0000
  C   C285      1.0  0.87371  0.61397  0.26543  1.0000
  C   C286      1.0  0.90437  0.64400  0.26799  1.0000
  H   H102      1.0  0.91379  0.65636  0.20840  1.0000
  N   N42       1.0  0.85717  0.60095  0.18227  1.0000
  O   O83       1.0  0.87417  0.59421  0.13000  1.0000
  O   O84       1.0  0.85039  0.62067  0.14295  1.0000
  C   C287      1.0  0.75211  0.76524  0.34842  1.0000
  C   C288      1.0  0.71672  0.74765  0.34850  1.0000
  C   C289      1.0  0.69909  0.76524  0.34873  1.0000
  C   C290      1.0  0.71727  0.80008  0.34880  1.0000
  C   C291      1.0  0.75211  0.81826  0.34852  1.0000
  C   C292      1.0  0.76969  0.80063  0.34842  1.0000
  C   C293      1.0  0.70003  0.71275  0.34853  1.0000
  C   C294      1.0  0.80459  0.81732  0.34833  1.0000
  H   H103      1.0  0.70456  0.81279  0.34896  1.0000
  C   C295      1.0  0.76986  0.74749  0.34842  1.0000
  C   C296      1.0  0.75227  0.71210  0.34841  1.0000
  C   C297      1.0  0.76986  0.69447  0.34853  1.0000
  C   C298      1.0  0.80470  0.71265  0.34870  1.0000
  C   C299      1.0  0.82288  0.74749  0.34875  1.0000
  C   C300      1.0  0.80525  0.76508  0.34848  1.0000
  C   C301      1.0  0.71738  0.69541  0.34834  1.0000
  H   H104      1.0  0.81741  0.69994  0.34876  1.0000
  C   C302      1.0  0.82193  0.79998  0.34850  1.0000
  H   H105      1.0  0.70395  0.67015  0.34836  1.0000
  H   H106      1.0  0.67477  0.69932  0.34859  1.0000
  H   H107      1.0  0.84719  0.81341  0.34856  1.0000
  H   H108      1.0  0.81802  0.84258  0.34834  1.0000
  C   C303      1.0  0.75216  0.98861  0.34850  1.0000
  C   C304      1.0  0.76974  0.97081  0.34862  1.0000
  C   C305      1.0  0.75217  0.93559  0.34861  1.0000
  C   C306      1.0  0.71732  0.91893  0.34845  1.0000
  C   C307      1.0  0.69914  0.93560  0.34835  1.0000
  C   C308      1.0  0.71677  0.97081  0.34839  1.0000
  C   C309      1.0  0.80465  0.98902  0.34876  1.0000
  C   C310      1.0  0.70008  0.98902  0.34829  1.0000
  H   H109      1.0  0.70461  0.89351  0.34844  1.0000
  C   C311      1.0  0.76991  0.52412  0.34848  1.0000
  C   C312      1.0  0.80530  0.54192  0.34850  1.0000
  C   C313      1.0  0.82292  0.57713  0.34834  1.0000
  C   C314      1.0  0.80474  0.59379  0.34838  1.0000
  C   C315      1.0  0.76990  0.57713  0.34852  1.0000
  C   C316      1.0  0.75232  0.54192  0.34846  1.0000
  C   C317      1.0  0.82199  0.52371  0.34856  1.0000
  H   H110      1.0  0.81745  0.61922  0.34836  1.0000
  C   C318      1.0  0.71742  0.52370  0.34847  1.0000
  H   H111      1.0  0.84725  0.53554  0.34857  1.0000
  H   H112      1.0  0.81808  0.97719  0.34883  1.0000
  H   H113      1.0  0.70399  0.53554  0.34845  1.0000
  H   H114      1.0  0.67482  0.97719  0.34823  1.0000
  C   C319      1.0  0.66416  0.75094  0.35036  1.0000
  C   C320      1.0  0.64831  0.75135  0.43192  1.0000
  C   C321      1.0  0.61765  0.75070  0.42928  1.0000
  H   H115      1.0  0.60820  0.75368  0.48880  1.0000
  N   N43       1.0  0.66488  0.75498  0.51506  1.0000
  O   O85       1.0  0.64793  0.73131  0.56753  1.0000
  O   O86       1.0  0.67166  0.78153  0.55414  1.0000
  C   C322      1.0  0.76647  0.91496  0.35022  1.0000
  C   C323      1.0  0.76621  0.89891  0.43203  1.0000
  C   C324      1.0  0.76677  0.86885  0.42952  1.0000
  H   H116      1.0  0.76397  0.85654  0.48916  1.0000
  N   N44       1.0  0.76277  0.91202  0.51507  1.0000
  O   O87       1.0  0.78653  0.91879  0.56725  1.0000
  O   O88       1.0  0.73628  0.89235  0.55458  1.0000
  C   C325      1.0  0.60238  0.85322  0.35023  1.0000
  C   C326      1.0  0.61856  0.86906  0.43184  1.0000
  C   C327      1.0  0.64863  0.89967  0.42916  1.0000
  H   H117      1.0  0.66096  0.90918  0.48876  1.0000
  N   N45       1.0  0.60554  0.85251  0.51496  1.0000
  O   O89       1.0  0.59884  0.86952  0.56729  1.0000
  O   O90       1.0  0.62525  0.84570  0.55423  1.0000
  C   C328      1.0  0.85781  0.76179  0.35015  1.0000
  C   C329      1.0  0.87352  0.76127  0.43191  1.0000
  C   C330      1.0  0.90418  0.76190  0.42940  1.0000
  H   H118      1.0  0.91356  0.75889  0.48900  1.0000
  N   N46       1.0  0.85688  0.75758  0.51498  1.0000
  O   O91       1.0  0.87381  0.78122  0.56760  1.0000
  O   O92       1.0  0.85007  0.73101  0.55396  1.0000
  C   C331      1.0  0.75561  0.59777  0.34993  1.0000
  C   C332      1.0  0.75600  0.61389  0.43178  1.0000
  C   C333      1.0  0.75534  0.64390  0.42940  1.0000
  H   H119      1.0  0.75834  0.65627  0.48901  1.0000
  N   N47       1.0  0.75964  0.60088  0.51480  1.0000
  O   O93       1.0  0.73595  0.59410  0.56729  1.0000
  O   O94       1.0  0.78617  0.62062  0.55397  1.0000
  C   C334      1.0  0.91962  0.65957  0.35038  1.0000
  C   C335      1.0  0.90349  0.64371  0.43203  1.0000
  C   C336      1.0  0.87347  0.61307  0.42938  1.0000
  H   H120      1.0  0.86114  0.60355  0.48897  1.0000
  N   N48       1.0  0.91651  0.66027  0.51514  1.0000
  O   O95       1.0  0.92327  0.64329  0.56741  1.0000
  O   O96       1.0  0.89677  0.66703  0.55448  1.0000
