data_image0
_chemical_formula_structural       C4H4C4H4C4H4C4H4C4HC4H2NO2C4HC4H2NO2C4HC4H2NO2C4HC4H2NO2C4HC4H2NO2C4HC4H2NO2C4HC4H2NO2C4HC4H2NO2C4H4C4H4C4H4C4H4C4HC4H2NO2C4HC4H2NO2C4HC4H2NO2C4HC4H2NO2C4H4C4H4C4H4C4H4C4HC4H2NO2C4HC4H2NO2C4H4C4H4C4H4C4H4C4HC4H2NO2C4HC4H2NO2C4HC4H2NO2C4HC4H2NO2C4HC4H2NO2C4HC4H2NO2C4HC4H2NO2C4HC4H2NO2C4H4C4H4C4H4C4H4C6H3C6H3C6H3C6H3C6H3C6H3C6H3C6H3C6H3C6H3C6H3C6H3C6H3C6H3C6H3C6H3C6H3C6H3C6H3C6H3C6H3C6H3C6H3C6H3C6H3C6H3C6H3C6H3C4HC4H2NO2C4HC4H2NO2C4HC4H2NO2C4HC4H2NO2C4H4C4H4C4H4C4H4C4H4C4H4C4H4C4H4C4HC4H2NO2C4HC4H2NO2C4HC4H2NO2C4HC4H2NO2C4H4C4H4C4H4C4H4C4HC4H2NO2C4HC4H2NO2C4HC4H2NO2C4HC4H2NO2C4H4C4H4C4HC4H2NO2C4HC4H2NO2C4HC4H2NO2C4HC4H2NO2C4H4C4H4C4H4C4H4C4H4C4H4C4H4C4H4C4HC4H2NO2C4HC4H2NO2C4HC4H2NO2C4HC4H2NO2
_chemical_formula_sum              "C672 H378 N42 O84"
_cell_length_a       78.3777
_cell_length_b       78.3777
_cell_length_c       14.8518
_cell_angle_alpha    90
_cell_angle_beta     90
_cell_angle_gamma    90

_space_group_name_H-M_alt    "P 1"
_space_group_IT_number       1

loop_
  _space_group_symop_operation_xyz
  'x, y, z'

loop_
  _atom_site_type_symbol
  _atom_site_label
  _atom_site_symmetry_multiplicity
  _atom_site_fract_x
  _atom_site_fract_y
  _atom_site_fract_z
  _atom_site_occupancy
  C   C1        1.0  0.12193  0.11230  0.27364  1.0000
  C   C2        1.0  0.13449  0.12506  0.27460  1.0000
  C   C3        1.0  0.14839  0.16232  0.28252  1.0000
  C   C4        1.0  0.16105  0.17503  0.28229  1.0000
  H   H1        1.0  0.13875  0.16295  0.23613  1.0000
  H   H2        1.0  0.16045  0.18444  0.23460  1.0000
  H   H3        1.0  0.12122  0.10427  0.21939  1.0000
  H   H4        1.0  0.14279  0.12586  0.22152  1.0000
  C   C5        1.0  0.88807  0.89767  0.27359  1.0000
  C   C6        1.0  0.87551  0.88490  0.27456  1.0000
  C   C7        1.0  0.86162  0.84764  0.28252  1.0000
  C   C8        1.0  0.84896  0.83493  0.28230  1.0000
  H   H5        1.0  0.87127  0.84701  0.23615  1.0000
  H   H6        1.0  0.84956  0.82552  0.23463  1.0000
  H   H7        1.0  0.88878  0.90570  0.21934  1.0000
  H   H8        1.0  0.86721  0.88410  0.22148  1.0000
  C   C9        1.0  0.89768  0.12191  0.27356  1.0000
  C   C10       1.0  0.88491  0.13448  0.27454  1.0000
  C   C11       1.0  0.84766  0.14838  0.28254  1.0000
  C   C12       1.0  0.83496  0.16104  0.28228  1.0000
  H   H9        1.0  0.84703  0.13874  0.23615  1.0000
  H   H10       1.0  0.82554  0.16044  0.23464  1.0000
  H   H11       1.0  0.90571  0.12121  0.21933  1.0000
  H   H12       1.0  0.88412  0.14278  0.22146  1.0000
  C   C13       1.0  0.11231  0.88807  0.27358  1.0000
  C   C14       1.0  0.12508  0.87551  0.27455  1.0000
  C   C15       1.0  0.16234  0.86162  0.28250  1.0000
  C   C16       1.0  0.17504  0.84896  0.28224  1.0000
  H   H13       1.0  0.16296  0.87126  0.23612  1.0000
  H   H14       1.0  0.18445  0.84956  0.23455  1.0000
  H   H15       1.0  0.10428  0.88878  0.21934  1.0000
  H   H16       1.0  0.12587  0.86721  0.22146  1.0000
  C   C17       1.0  0.09470  0.96046  0.35018  1.0000
  C   C18       1.0  0.09836  0.99642  0.34070  1.0000
  C   C19       1.0  0.10432  0.98604  0.26892  1.0000
  C   C20       1.0  0.10262  0.96810  0.27502  1.0000
  H   H17       1.0  0.10632  0.96069  0.22166  1.0000
  C   C21       1.0  0.09779  0.01446  0.33399  1.0000
  C   C22       1.0  0.09306  0.05039  0.33170  1.0000
  C   C23       1.0  0.08519  0.03993  0.26616  1.0000
  C   C24       1.0  0.08753  0.02219  0.26725  1.0000
  H   H18       1.0  0.07727  0.04511  0.21864  1.0000
  H   H19       1.0  0.08105  0.01490  0.22136  1.0000
  N   N1        1.0  0.11166  0.99380  0.19206  1.0000
  O   O1        1.0  0.10332  0.99038  0.12207  1.0000
  O   O2        1.0  0.12681  0.98905  0.18112  1.0000
  C   C25       1.0  0.91529  0.04952  0.35024  1.0000
  C   C26       1.0  0.91164  0.01356  0.34073  1.0000
  C   C27       1.0  0.90565  0.02395  0.26903  1.0000
  C   C28       1.0  0.90734  0.04189  0.27517  1.0000
  H   H20       1.0  0.90364  0.04929  0.22179  1.0000
  C   C29       1.0  0.91218  0.99552  0.33400  1.0000
  C   C30       1.0  0.91691  0.95959  0.33166  1.0000
  C   C31       1.0  0.92476  0.97005  0.26606  1.0000
  C   C32       1.0  0.92242  0.98779  0.26715  1.0000
  H   H21       1.0  0.93269  0.96488  0.21856  1.0000
  H   H22       1.0  0.92892  0.99508  0.22132  1.0000
  N   N2        1.0  0.89830  0.01619  0.19219  1.0000
  O   O3        1.0  0.90662  0.01962  0.12216  1.0000
  O   O4        1.0  0.88314  0.02093  0.18136  1.0000
  C   C33       1.0  0.04953  0.09468  0.35034  1.0000
  C   C34       1.0  0.01357  0.09833  0.34079  1.0000
  C   C35       1.0  0.02395  0.10429  0.26903  1.0000
  C   C36       1.0  0.04189  0.10258  0.27513  1.0000
  H   H23       1.0  0.04930  0.10630  0.22180  1.0000
  C   C37       1.0  0.99552  0.09778  0.33408  1.0000
  C   C38       1.0  0.95959  0.09305  0.33176  1.0000
  C   C39       1.0  0.97005  0.08519  0.26619  1.0000
  C   C40       1.0  0.98779  0.08753  0.26730  1.0000
  H   H24       1.0  0.96488  0.07726  0.21870  1.0000
  H   H25       1.0  0.99508  0.08103  0.22148  1.0000
  N   N3        1.0  0.01619  0.11162  0.19215  1.0000
  O   O5        1.0  0.01961  0.10329  0.12217  1.0000
  O   O6        1.0  0.02094  0.12678  0.18122  1.0000
  C   C41       1.0  0.96046  0.91532  0.35023  1.0000
  C   C42       1.0  0.99642  0.91167  0.34071  1.0000
  C   C43       1.0  0.98604  0.90568  0.26899  1.0000
  C   C44       1.0  0.96810  0.90739  0.27510  1.0000
  H   H26       1.0  0.96069  0.90367  0.22179  1.0000
  C   C45       1.0  0.01447  0.91222  0.33399  1.0000
  C   C46       1.0  0.05040  0.91694  0.33170  1.0000
  C   C47       1.0  0.03995  0.92480  0.26611  1.0000
  C   C48       1.0  0.02220  0.92245  0.26711  1.0000
  H   H27       1.0  0.04512  0.93271  0.21853  1.0000
  H   H28       1.0  0.01492  0.92894  0.22129  1.0000
  N   N4        1.0  0.99380  0.89834  0.19215  1.0000
  O   O7        1.0  0.99037  0.90665  0.12212  1.0000
  O   O8        1.0  0.98906  0.88317  0.18134  1.0000
  C   C49       1.0  0.16225  0.32208  0.34905  1.0000
  C   C50       1.0  0.17307  0.28729  0.34525  1.0000
  C   C51       1.0  0.16601  0.29499  0.26694  1.0000
  C   C52       1.0  0.16063  0.31226  0.26987  1.0000
  H   H29       1.0  0.15600  0.31785  0.21249  1.0000
  C   C53       1.0  0.17902  0.27006  0.34606  1.0000
  C   C54       1.0  0.19063  0.23540  0.34798  1.0000
  C   C55       1.0  0.19770  0.24746  0.28760  1.0000
  C   C56       1.0  0.19195  0.26449  0.28648  1.0000
  H   H30       1.0  0.20678  0.24382  0.24194  1.0000
  H   H31       1.0  0.19734  0.27283  0.24174  1.0000
  N   N5        1.0  0.16432  0.28526  0.18713  1.0000
  O   O9        1.0  0.17274  0.29169  0.12362  1.0000
  O   O10       1.0  0.14898  0.28409  0.16344  1.0000
  C   C57       1.0  0.84772  0.68789  0.34945  1.0000
  C   C58       1.0  0.83692  0.72267  0.34556  1.0000
  C   C59       1.0  0.84400  0.71497  0.26730  1.0000
  C   C60       1.0  0.84938  0.69770  0.27028  1.0000
  H   H32       1.0  0.85401  0.69211  0.21293  1.0000
  C   C61       1.0  0.83098  0.73990  0.34631  1.0000
  C   C62       1.0  0.81937  0.77457  0.34809  1.0000
  C   C63       1.0  0.81230  0.76251  0.28774  1.0000
  C   C64       1.0  0.81805  0.74548  0.28666  1.0000
  H   H33       1.0  0.80324  0.76614  0.24199  1.0000
  H   H34       1.0  0.81267  0.73713  0.24190  1.0000
  N   N6        1.0  0.84571  0.72470  0.18748  1.0000
  O   O11       1.0  0.83730  0.71827  0.12393  1.0000
  O   O12       1.0  0.86105  0.72587  0.16388  1.0000
  C   C65       1.0  0.68791  0.16226  0.34947  1.0000
  C   C66       1.0  0.72269  0.17308  0.34556  1.0000
  C   C67       1.0  0.71498  0.16602  0.26724  1.0000
  C   C68       1.0  0.69770  0.16065  0.27022  1.0000
  H   H35       1.0  0.69211  0.15603  0.21286  1.0000
  C   C69       1.0  0.73992  0.17902  0.34632  1.0000
  C   C70       1.0  0.77458  0.19063  0.34811  1.0000
  C   C71       1.0  0.76252  0.19770  0.28782  1.0000
  C   C72       1.0  0.74549  0.19195  0.28675  1.0000
  H   H36       1.0  0.76615  0.20677  0.24213  1.0000
  H   H37       1.0  0.73715  0.19735  0.24205  1.0000
  N   N7        1.0  0.72470  0.16434  0.18739  1.0000
  O   O13       1.0  0.71826  0.17277  0.12393  1.0000
  O   O14       1.0  0.72586  0.14901  0.16364  1.0000
  C   C73       1.0  0.32210  0.84775  0.34911  1.0000
  C   C74       1.0  0.28732  0.83692  0.34521  1.0000
  C   C75       1.0  0.29502  0.84399  0.26692  1.0000
  C   C76       1.0  0.31229  0.84937  0.26991  1.0000
  H   H38       1.0  0.31788  0.85400  0.21255  1.0000
  C   C77       1.0  0.27009  0.83098  0.34598  1.0000
  C   C78       1.0  0.23542  0.81937  0.34784  1.0000
  C   C79       1.0  0.24748  0.81231  0.28745  1.0000
  C   C80       1.0  0.26451  0.81805  0.28638  1.0000
  H   H39       1.0  0.24384  0.80323  0.24180  1.0000
  H   H40       1.0  0.27285  0.81266  0.24165  1.0000
  N   N8        1.0  0.28530  0.84568  0.18710  1.0000
  O   O15       1.0  0.29173  0.83727  0.12359  1.0000
  O   O16       1.0  0.28413  0.86102  0.16342  1.0000
  C   C81       1.0  0.84227  0.31399  0.26000  1.0000
  C   C82       1.0  0.83698  0.29686  0.26164  1.0000
  C   C83       1.0  0.83849  0.25791  0.28016  1.0000
  C   C84       1.0  0.83269  0.24093  0.27971  1.0000
  H   H41       1.0  0.84807  0.26132  0.23685  1.0000
  H   H42       1.0  0.83807  0.23259  0.23495  1.0000
  H   H43       1.0  0.84083  0.32087  0.20187  1.0000
  H   H44       1.0  0.83190  0.29173  0.20419  1.0000
  C   C85       1.0  0.16774  0.69600  0.25963  1.0000
  C   C86       1.0  0.17302  0.71313  0.26128  1.0000
  C   C87       1.0  0.17151  0.75209  0.27987  1.0000
  C   C88       1.0  0.17731  0.76907  0.27946  1.0000
  H   H45       1.0  0.16193  0.74869  0.23657  1.0000
  H   H46       1.0  0.17192  0.77741  0.23473  1.0000
  H   H47       1.0  0.16918  0.68913  0.20150  1.0000
  H   H48       1.0  0.17810  0.71827  0.20384  1.0000
  C   C89       1.0  0.31400  0.16773  0.25994  1.0000
  C   C90       1.0  0.29686  0.17301  0.26158  1.0000
  C   C91       1.0  0.25791  0.17148  0.28020  1.0000
  C   C92       1.0  0.24094  0.17729  0.27972  1.0000
  H   H49       1.0  0.26132  0.16191  0.23685  1.0000
  H   H50       1.0  0.23260  0.17190  0.23497  1.0000
  H   H51       1.0  0.32087  0.16915  0.20177  1.0000
  H   H52       1.0  0.29172  0.17808  0.20414  1.0000
  C   C93       1.0  0.69601  0.84225  0.25964  1.0000
  C   C94       1.0  0.71315  0.83698  0.26132  1.0000
  C   C95       1.0  0.75210  0.83849  0.28003  1.0000
  C   C96       1.0  0.76907  0.83268  0.27960  1.0000
  H   H53       1.0  0.74869  0.84807  0.23671  1.0000
  H   H54       1.0  0.77742  0.83807  0.23486  1.0000
  H   H55       1.0  0.68915  0.84083  0.20146  1.0000
  H   H56       1.0  0.71830  0.83191  0.20387  1.0000
  C   C97       1.0  0.37143  0.12196  0.33981  1.0000
  C   C98       1.0  0.38400  0.08742  0.33560  1.0000
  C   C99       1.0  0.37496  0.09433  0.26093  1.0000
  C   C100      1.0  0.36861  0.11130  0.26451  1.0000
  H   H57       1.0  0.36199  0.11597  0.21043  1.0000
  C   C101      1.0  0.39083  0.07038  0.33488  1.0000
  C   C102      1.0  0.40528  0.03648  0.33423  1.0000
  C   C103      1.0  0.41014  0.04891  0.26976  1.0000
  C   C104      1.0  0.40303  0.06543  0.26971  1.0000
  H   H58       1.0  0.41913  0.04605  0.22207  1.0000
  H   H59       1.0  0.40718  0.07403  0.22267  1.0000
  N   N9        1.0  0.37203  0.08396  0.18443  1.0000
  O   O17       1.0  0.37861  0.09038  0.11511  1.0000
  O   O18       1.0  0.35636  0.08182  0.17075  1.0000
  C   C105      1.0  0.63857  0.88801  0.33916  1.0000
  C   C106      1.0  0.62602  0.92256  0.33499  1.0000
  C   C107      1.0  0.63530  0.91575  0.26094  1.0000
  C   C108      1.0  0.64164  0.89878  0.26452  1.0000
  H   H60       1.0  0.64843  0.89417  0.21086  1.0000
  C   C109      1.0  0.61921  0.93962  0.33424  1.0000
  C   C110      1.0  0.60481  0.97353  0.33346  1.0000
  C   C111      1.0  0.60009  0.96117  0.26833  1.0000
  C   C112      1.0  0.60719  0.94464  0.26831  1.0000
  H   H61       1.0  0.59122  0.96409  0.22016  1.0000
  H   H62       1.0  0.60314  0.93610  0.22080  1.0000
  N   N10       1.0  0.63848  0.92621  0.18509  1.0000
  O   O19       1.0  0.63213  0.91988  0.11496  1.0000
  O   O20       1.0  0.65419  0.92837  0.17293  1.0000
  C   C113      1.0  0.88803  0.37142  0.33982  1.0000
  C   C114      1.0  0.92258  0.38398  0.33562  1.0000
  C   C115      1.0  0.91566  0.37496  0.26093  1.0000
  C   C116      1.0  0.89869  0.36861  0.26449  1.0000
  H   H63       1.0  0.89402  0.36200  0.21039  1.0000
  C   C117      1.0  0.93962  0.39081  0.33491  1.0000
  C   C118      1.0  0.97352  0.40526  0.33427  1.0000
  C   C119      1.0  0.96109  0.41012  0.26980  1.0000
  C   C120      1.0  0.94457  0.40301  0.26973  1.0000
  H   H64       1.0  0.96395  0.41911  0.22213  1.0000
  H   H65       1.0  0.93597  0.40717  0.22274  1.0000
  N   N11       1.0  0.92602  0.37203  0.18440  1.0000
  O   O21       1.0  0.91960  0.37863  0.11512  1.0000
  O   O22       1.0  0.92816  0.35637  0.17066  1.0000
  C   C121      1.0  0.12197  0.63857  0.33921  1.0000
  C   C122      1.0  0.08742  0.62599  0.33500  1.0000
  C   C123      1.0  0.09423  0.63530  0.26100  1.0000
  C   C124      1.0  0.11120  0.64164  0.26458  1.0000
  H   H66       1.0  0.11580  0.64845  0.21097  1.0000
  C   C125      1.0  0.07037  0.61919  0.33426  1.0000
  C   C126      1.0  0.03645  0.60480  0.33342  1.0000
  C   C127      1.0  0.04881  0.60008  0.26829  1.0000
  C   C128      1.0  0.06534  0.60718  0.26826  1.0000
  H   H67       1.0  0.04589  0.59122  0.22008  1.0000
  H   H68       1.0  0.07388  0.60313  0.22074  1.0000
  N   N12       1.0  0.08376  0.63849  0.18518  1.0000
  O   O23       1.0  0.09009  0.63216  0.11500  1.0000
  O   O24       1.0  0.08160  0.65420  0.17311  1.0000
  C   C129      1.0  0.62913  0.11639  0.27329  1.0000
  C   C130      1.0  0.62319  0.09939  0.27478  1.0000
  C   C131      1.0  0.62395  0.05933  0.28695  1.0000
  C   C132      1.0  0.61709  0.04264  0.28766  1.0000
  H   H69       1.0  0.63276  0.06242  0.23882  1.0000
  H   H70       1.0  0.62080  0.03427  0.23854  1.0000
  H   H71       1.0  0.62711  0.12360  0.21685  1.0000
  H   H72       1.0  0.61670  0.09489  0.21988  1.0000
  C   C133      1.0  0.38066  0.89366  0.27207  1.0000
  C   C134      1.0  0.38662  0.91065  0.27358  1.0000
  C   C135      1.0  0.38597  0.95070  0.28694  1.0000
  C   C136      1.0  0.39285  0.96738  0.28762  1.0000
  H   H73       1.0  0.37703  0.94766  0.23938  1.0000
  H   H74       1.0  0.38902  0.97581  0.23904  1.0000
  H   H75       1.0  0.38252  0.88650  0.21529  1.0000
  H   H76       1.0  0.39294  0.91521  0.21828  1.0000
  C   C137      1.0  0.11633  0.38061  0.27196  1.0000
  C   C138      1.0  0.09933  0.38656  0.27347  1.0000
  C   C139      1.0  0.05929  0.38593  0.28698  1.0000
  C   C140      1.0  0.04261  0.39282  0.28760  1.0000
  H   H77       1.0  0.06232  0.37697  0.23950  1.0000
  H   H78       1.0  0.03417  0.38896  0.23916  1.0000
  H   H79       1.0  0.12348  0.38245  0.21513  1.0000
  H   H80       1.0  0.09477  0.39286  0.21813  1.0000
  C   C141      1.0  0.89360  0.62911  0.27325  1.0000
  C   C142      1.0  0.91060  0.62317  0.27474  1.0000
  C   C143      1.0  0.95065  0.62392  0.28693  1.0000
  C   C144      1.0  0.96734  0.61706  0.28762  1.0000
  H   H81       1.0  0.94756  0.63274  0.23880  1.0000
  H   H82       1.0  0.97571  0.62078  0.23853  1.0000
  H   H83       1.0  0.88638  0.62708  0.21683  1.0000
  H   H84       1.0  0.91510  0.61668  0.21986  1.0000
  C   C145      1.0  0.45926  0.00459  0.34062  1.0000
  C   C146      1.0  0.49570  0.00483  0.33776  1.0000
  C   C147      1.0  0.48635  0.00047  0.25898  1.0000
  C   C148      1.0  0.46826  0.00026  0.26157  1.0000
  H   H85       1.0  0.46163  0.99703  0.20465  1.0000
  C   C149      1.0  0.51392  0.00510  0.33915  1.0000
  C   C150      1.0  0.55051  0.00542  0.34122  1.0000
  C   C151      1.0  0.54119  0.01628  0.28300  1.0000
  C   C152      1.0  0.52322  0.01607  0.28166  1.0000
  H   H86       1.0  0.54743  0.02426  0.23955  1.0000
  H   H87       1.0  0.51695  0.02412  0.23864  1.0000
  N   N13       1.0  0.49525  0.99596  0.17951  1.0000
  O   O25       1.0  0.49160  0.00585  0.11578  1.0000
  O   O26       1.0  0.49193  0.98093  0.15597  1.0000
  C   C153      1.0  0.00541  0.45924  0.34061  1.0000
  C   C154      1.0  0.00517  0.49568  0.33776  1.0000
  C   C155      1.0  0.00954  0.48633  0.25899  1.0000
  C   C156      1.0  0.00975  0.46824  0.26159  1.0000
  H   H88       1.0  0.01298  0.46161  0.20467  1.0000
  C   C157      1.0  0.00489  0.51390  0.33915  1.0000
  C   C158      1.0  0.00457  0.55049  0.34121  1.0000
  C   C159      1.0  0.99371  0.54117  0.28302  1.0000
  C   C160      1.0  0.99392  0.52320  0.28165  1.0000
  H   H89       1.0  0.98574  0.54741  0.23953  1.0000
  H   H90       1.0  0.98588  0.51693  0.23862  1.0000
  N   N14       1.0  0.01405  0.49523  0.17954  1.0000
  O   O27       1.0  0.00417  0.49159  0.11578  1.0000
  O   O28       1.0  0.02909  0.49192  0.15603  1.0000
  C   C161      1.0  0.19647  0.38032  0.26018  1.0000
  C   C162      1.0  0.21301  0.38730  0.26239  1.0000
  C   C163      1.0  0.24298  0.41225  0.28727  1.0000
  C   C164      1.0  0.25999  0.41811  0.28671  1.0000
  H   H91       1.0  0.23427  0.41818  0.24654  1.0000
  H   H92       1.0  0.26309  0.42792  0.24433  1.0000
  H   H93       1.0  0.19188  0.37562  0.20058  1.0000
  H   H94       1.0  0.21989  0.38760  0.20383  1.0000
  C   C165      1.0  0.81355  0.62964  0.26042  1.0000
  C   C166      1.0  0.79700  0.62267  0.26258  1.0000
  C   C167      1.0  0.76702  0.59772  0.28734  1.0000
  C   C168      1.0  0.75002  0.59187  0.28677  1.0000
  H   H95       1.0  0.77574  0.59180  0.24663  1.0000
  H   H96       1.0  0.74691  0.58206  0.24434  1.0000
  H   H97       1.0  0.81813  0.63435  0.20084  1.0000
  H   H98       1.0  0.79012  0.62239  0.20400  1.0000
  C   C169      1.0  0.62967  0.19643  0.26051  1.0000
  C   C170      1.0  0.62271  0.21299  0.26265  1.0000
  C   C171      1.0  0.59775  0.24297  0.28727  1.0000
  C   C172      1.0  0.59190  0.25997  0.28672  1.0000
  H   H99       1.0  0.59183  0.23425  0.24656  1.0000
  H   H100      1.0  0.58209  0.26307  0.24426  1.0000
  H   H101      1.0  0.63441  0.19186  0.20097  1.0000
  H   H102      1.0  0.62244  0.21987  0.20407  1.0000
  C   C173      1.0  0.38031  0.81353  0.26032  1.0000
  C   C174      1.0  0.38729  0.79698  0.26248  1.0000
  C   C175      1.0  0.41225  0.76700  0.28716  1.0000
  C   C176      1.0  0.41810  0.75000  0.28665  1.0000
  H   H103      1.0  0.41817  0.77572  0.24644  1.0000
  H   H104      1.0  0.42790  0.74689  0.24420  1.0000
  H   H105      1.0  0.37558  0.81810  0.20076  1.0000
  H   H106      1.0  0.38754  0.79009  0.20393  1.0000
  C   C177      1.0  0.82480  0.37875  0.34763  1.0000
  C   C178      1.0  0.79087  0.39245  0.34280  1.0000
  C   C179      1.0  0.80070  0.39111  0.26250  1.0000
  C   C180      1.0  0.81746  0.38427  0.26585  1.0000
  H   H107      1.0  0.82412  0.38273  0.20705  1.0000
  C   C181      1.0  0.77355  0.39839  0.34303  1.0000
  C   C182      1.0  0.73875  0.41019  0.34484  1.0000
  C   C183      1.0  0.74387  0.39633  0.28991  1.0000
  C   C184      1.0  0.76090  0.39057  0.28891  1.0000
  H   H108      1.0  0.73526  0.39049  0.24828  1.0000
  H   H109      1.0  0.76398  0.38044  0.24861  1.0000
  N   N15       1.0  0.79362  0.39669  0.17989  1.0000
  O   O29       1.0  0.79276  0.38472  0.12378  1.0000
  O   O30       1.0  0.80224  0.40861  0.14637  1.0000
  C   C185      1.0  0.18522  0.63124  0.34735  1.0000
  C   C186      1.0  0.21913  0.61753  0.34266  1.0000
  C   C187      1.0  0.20930  0.61882  0.26236  1.0000
  C   C188      1.0  0.19253  0.62566  0.26564  1.0000
  H   H110      1.0  0.18587  0.62718  0.20683  1.0000
  C   C189      1.0  0.23645  0.61159  0.34292  1.0000
  C   C190      1.0  0.27125  0.59978  0.34481  1.0000
  C   C191      1.0  0.26613  0.61363  0.28974  1.0000
  C   C192      1.0  0.24910  0.61939  0.28873  1.0000
  H   H111      1.0  0.27474  0.61947  0.24813  1.0000
  H   H112      1.0  0.24602  0.62952  0.24836  1.0000
  N   N16       1.0  0.21637  0.61321  0.17982  1.0000
  O   O31       1.0  0.21723  0.62515  0.12353  1.0000
  O   O32       1.0  0.20775  0.60127  0.14648  1.0000
  C   C193      1.0  0.37877  0.18520  0.34742  1.0000
  C   C194      1.0  0.39247  0.21912  0.34271  1.0000
  C   C195      1.0  0.39118  0.20929  0.26242  1.0000
  C   C196      1.0  0.38434  0.19252  0.26573  1.0000
  H   H113      1.0  0.38281  0.18586  0.20692  1.0000
  C   C197      1.0  0.39841  0.23644  0.34298  1.0000
  C   C198      1.0  0.41021  0.27124  0.34481  1.0000
  C   C199      1.0  0.39637  0.26612  0.28978  1.0000
  C   C200      1.0  0.39060  0.24908  0.28879  1.0000
  H   H114      1.0  0.39053  0.27473  0.24815  1.0000
  H   H115      1.0  0.38048  0.24600  0.24841  1.0000
  N   N17       1.0  0.39678  0.21636  0.17986  1.0000
  O   O33       1.0  0.38484  0.21721  0.12361  1.0000
  O   O34       1.0  0.40872  0.20774  0.14650  1.0000
  C   C201      1.0  0.63124  0.82477  0.34732  1.0000
  C   C202      1.0  0.61752  0.79085  0.34267  1.0000
  C   C203      1.0  0.61878  0.80070  0.26239  1.0000
  C   C204      1.0  0.62561  0.81747  0.26567  1.0000
  H   H116      1.0  0.62712  0.82412  0.20686  1.0000
  C   C205      1.0  0.61159  0.77353  0.34294  1.0000
  C   C206      1.0  0.59978  0.73873  0.34479  1.0000
  C   C207      1.0  0.61362  0.74385  0.28971  1.0000
  C   C208      1.0  0.61938  0.76089  0.28868  1.0000
  H   H117      1.0  0.61945  0.73525  0.24800  1.0000
  H   H118      1.0  0.62949  0.76398  0.24825  1.0000
  N   N18       1.0  0.61314  0.79363  0.17988  1.0000
  O   O35       1.0  0.62506  0.79278  0.12349  1.0000
  O   O36       1.0  0.60119  0.80226  0.14668  1.0000
  C   C209      1.0  0.31261  0.45918  0.34615  1.0000
  C   C210      1.0  0.31401  0.49586  0.33896  1.0000
  C   C211      1.0  0.31931  0.48584  0.26405  1.0000
  C   C212      1.0  0.31873  0.46773  0.26888  1.0000
  H   H119      1.0  0.32226  0.46074  0.21369  1.0000
  C   C213      1.0  0.31353  0.51419  0.33632  1.0000
  C   C214      1.0  0.31111  0.55093  0.33504  1.0000
  C   C215      1.0  0.30210  0.54077  0.27196  1.0000
  C   C216      1.0  0.30333  0.52283  0.27227  1.0000
  H   H120      1.0  0.29436  0.54641  0.22509  1.0000
  H   H121      1.0  0.29627  0.51605  0.22665  1.0000
  N   N19       1.0  0.32521  0.49415  0.18541  1.0000
  O   O37       1.0  0.31611  0.49052  0.11846  1.0000
  O   O38       1.0  0.34040  0.49019  0.16830  1.0000
  C   C217      1.0  0.69740  0.55079  0.34610  1.0000
  C   C218      1.0  0.69599  0.51412  0.33888  1.0000
  C   C219      1.0  0.69068  0.52414  0.26402  1.0000
  C   C220      1.0  0.69125  0.54225  0.26888  1.0000
  H   H122      1.0  0.68771  0.54924  0.21370  1.0000
  C   C221      1.0  0.69647  0.49578  0.33624  1.0000
  C   C222      1.0  0.69888  0.45905  0.33497  1.0000
  C   C223      1.0  0.70789  0.46920  0.27186  1.0000
  C   C224      1.0  0.70665  0.48714  0.27213  1.0000
  H   H123      1.0  0.71562  0.46355  0.22497  1.0000
  H   H124      1.0  0.71371  0.49392  0.22651  1.0000
  N   N20       1.0  0.68476  0.51583  0.18541  1.0000
  O   O39       1.0  0.69385  0.51946  0.11841  1.0000
  O   O40       1.0  0.66957  0.51978  0.16838  1.0000
  C   C225      1.0  0.55081  0.31258  0.34605  1.0000
  C   C226      1.0  0.51414  0.31401  0.33889  1.0000
  C   C227      1.0  0.52415  0.31931  0.26401  1.0000
  C   C228      1.0  0.54226  0.31873  0.26884  1.0000
  H   H125      1.0  0.54925  0.32227  0.21365  1.0000
  C   C229      1.0  0.49580  0.31352  0.33626  1.0000
  C   C230      1.0  0.45907  0.31111  0.33500  1.0000
  C   C231      1.0  0.46922  0.30210  0.27189  1.0000
  C   C232      1.0  0.48716  0.30333  0.27220  1.0000
  H   H126      1.0  0.46357  0.29437  0.22500  1.0000
  H   H127      1.0  0.49394  0.29628  0.22652  1.0000
  N   N21       1.0  0.51584  0.32523  0.18541  1.0000
  O   O41       1.0  0.51947  0.31614  0.11840  1.0000
  O   O42       1.0  0.51980  0.34042  0.16836  1.0000
  C   C233      1.0  0.45919  0.69740  0.34611  1.0000
  C   C234      1.0  0.49587  0.69596  0.33896  1.0000
  C   C235      1.0  0.48585  0.69064  0.26412  1.0000
  C   C236      1.0  0.46774  0.69122  0.26896  1.0000
  H   H128      1.0  0.46075  0.68768  0.21377  1.0000
  C   C237      1.0  0.51420  0.69645  0.33631  1.0000
  C   C238      1.0  0.55094  0.69885  0.33497  1.0000
  C   C239      1.0  0.54078  0.70786  0.27187  1.0000
  C   C240      1.0  0.52284  0.70663  0.27218  1.0000
  H   H129      1.0  0.54643  0.71559  0.22497  1.0000
  H   H130      1.0  0.51606  0.71368  0.22653  1.0000
  N   N22       1.0  0.49416  0.68471  0.18554  1.0000
  O   O43       1.0  0.49053  0.69378  0.11849  1.0000
  O   O44       1.0  0.49020  0.66952  0.16859  1.0000
  C   C241      1.0  0.33877  0.38954  0.26584  1.0000
  C   C242      1.0  0.35190  0.37724  0.26820  1.0000
  C   C243      1.0  0.38810  0.36091  0.28764  1.0000
  C   C244      1.0  0.40044  0.34776  0.28832  1.0000
  H   H131      1.0  0.38943  0.37068  0.24245  1.0000
  H   H132      1.0  0.41013  0.34825  0.24223  1.0000
  H   H133      1.0  0.33192  0.39107  0.20771  1.0000
  H   H134      1.0  0.35407  0.37008  0.21169  1.0000
  C   C245      1.0  0.67125  0.62044  0.26583  1.0000
  C   C246      1.0  0.65812  0.63275  0.26820  1.0000
  C   C247      1.0  0.62191  0.64907  0.28760  1.0000
  C   C248      1.0  0.60957  0.66221  0.28831  1.0000
  H   H135      1.0  0.62059  0.63930  0.24238  1.0000
  H   H136      1.0  0.59989  0.66174  0.24215  1.0000
  H   H137      1.0  0.67810  0.61893  0.20773  1.0000
  H   H138      1.0  0.65596  0.63992  0.21172  1.0000
  C   C249      1.0  0.62045  0.33874  0.26585  1.0000
  C   C250      1.0  0.63277  0.35186  0.26822  1.0000
  C   C251      1.0  0.64908  0.38807  0.28762  1.0000
  C   C252      1.0  0.66223  0.40042  0.28835  1.0000
  H   H139      1.0  0.63932  0.38940  0.24241  1.0000
  H   H140      1.0  0.66175  0.41010  0.24217  1.0000
  H   H141      1.0  0.61894  0.33188  0.20774  1.0000
  H   H142      1.0  0.63992  0.35403  0.21172  1.0000
  C   C253      1.0  0.38954  0.67124  0.26588  1.0000
  C   C254      1.0  0.37723  0.65811  0.26823  1.0000
  C   C255      1.0  0.36092  0.62190  0.28760  1.0000
  C   C256      1.0  0.34777  0.60955  0.28833  1.0000
  H   H143      1.0  0.37068  0.62057  0.24236  1.0000
  H   H144      1.0  0.34824  0.59988  0.24215  1.0000
  H   H145      1.0  0.39104  0.67811  0.20780  1.0000
  H   H146      1.0  0.37006  0.65595  0.21177  1.0000
  C   C257      1.0  0.08892  0.06798  0.33698  1.0000
  C   C258      1.0  0.07165  0.07296  0.34263  1.0000
  C   C259      1.0  0.06702  0.09031  0.34828  1.0000
  C   C260      1.0  0.07989  0.10286  0.34815  1.0000
  C   C261      1.0  0.09729  0.09817  0.34379  1.0000
  C   C262      1.0  0.10168  0.08070  0.33830  1.0000
  H   H147      1.0  0.07655  0.11550  0.35131  1.0000
  H   H148      1.0  0.11426  0.07721  0.33497  1.0000
  H   H149      1.0  0.06228  0.06383  0.34243  1.0000
  C   C263      1.0  0.92105  0.94200  0.33693  1.0000
  C   C264      1.0  0.93833  0.93703  0.34255  1.0000
  C   C265      1.0  0.94297  0.91969  0.34818  1.0000
  C   C266      1.0  0.93010  0.90712  0.34809  1.0000
  C   C267      1.0  0.91270  0.91181  0.34374  1.0000
  C   C268      1.0  0.90831  0.92927  0.33827  1.0000
  H   H150      1.0  0.93345  0.89449  0.35123  1.0000
  H   H151      1.0  0.89572  0.93276  0.33495  1.0000
  H   H152      1.0  0.94769  0.94617  0.34234  1.0000
  C   C269      1.0  0.94200  0.08892  0.33697  1.0000
  C   C270      1.0  0.93702  0.07165  0.34261  1.0000
  C   C271      1.0  0.91968  0.06701  0.34822  1.0000
  C   C272      1.0  0.90712  0.07989  0.34809  1.0000
  C   C273      1.0  0.91181  0.09728  0.34376  1.0000
  C   C274      1.0  0.92928  0.10167  0.33830  1.0000
  H   H153      1.0  0.89449  0.07655  0.35122  1.0000
  H   H154      1.0  0.93277  0.11425  0.33498  1.0000
  H   H155      1.0  0.94616  0.06227  0.34240  1.0000
  C   C275      1.0  0.06799  0.92107  0.33694  1.0000
  C   C276      1.0  0.07297  0.93834  0.34255  1.0000
  C   C277      1.0  0.09032  0.94297  0.34816  1.0000
  C   C278      1.0  0.10287  0.93010  0.34807  1.0000
  C   C279      1.0  0.09818  0.91270  0.34376  1.0000
  C   C280      1.0  0.08071  0.90831  0.33829  1.0000
  H   H156      1.0  0.11550  0.93343  0.35120  1.0000
  H   H157      1.0  0.07721  0.89573  0.33499  1.0000
  H   H158      1.0  0.06384  0.94771  0.34232  1.0000
  C   C281      1.0  0.18744  0.18744  0.34474  1.0000
  C   C282      1.0  0.20488  0.18295  0.34336  1.0000
  C   C283      1.0  0.21790  0.19544  0.34170  1.0000
  C   C284      1.0  0.21303  0.21286  0.34349  1.0000
  C   C285      1.0  0.19565  0.21785  0.34591  1.0000
  C   C286      1.0  0.18307  0.20491  0.34553  1.0000
  H   H159      1.0  0.22229  0.22206  0.34304  1.0000
  H   H160      1.0  0.17042  0.20825  0.34627  1.0000
  H   H161      1.0  0.20813  0.17029  0.34316  1.0000
  C   C287      1.0  0.82256  0.82252  0.34472  1.0000
  C   C288      1.0  0.80513  0.82702  0.34328  1.0000
  C   C289      1.0  0.79210  0.81453  0.34162  1.0000
  C   C290      1.0  0.79698  0.79711  0.34346  1.0000
  C   C291      1.0  0.81435  0.79212  0.34595  1.0000
  C   C292      1.0  0.82694  0.80506  0.34558  1.0000
  H   H162      1.0  0.78771  0.78790  0.34302  1.0000
  H   H163      1.0  0.83958  0.80172  0.34636  1.0000
  H   H164      1.0  0.80188  0.83968  0.34305  1.0000
  C   C293      1.0  0.82254  0.18744  0.34475  1.0000
  C   C294      1.0  0.82703  0.20488  0.34335  1.0000
  C   C295      1.0  0.81454  0.21790  0.34174  1.0000
  C   C296      1.0  0.79713  0.21302  0.34356  1.0000
  C   C297      1.0  0.79214  0.19564  0.34601  1.0000
  C   C298      1.0  0.80507  0.18306  0.34559  1.0000
  H   H165      1.0  0.78792  0.22229  0.34314  1.0000
  H   H166      1.0  0.80174  0.17042  0.34634  1.0000
  H   H167      1.0  0.83970  0.20812  0.34312  1.0000
  C   C299      1.0  0.18746  0.82256  0.34463  1.0000
  C   C300      1.0  0.18297  0.80512  0.34319  1.0000
  C   C301      1.0  0.19546  0.79210  0.34152  1.0000
  C   C302      1.0  0.21288  0.79698  0.34330  1.0000
  C   C303      1.0  0.21787  0.81435  0.34578  1.0000
  C   C304      1.0  0.20493  0.82694  0.34544  1.0000
  H   H168      1.0  0.22209  0.78771  0.34282  1.0000
  H   H169      1.0  0.20826  0.83958  0.34620  1.0000
  H   H170      1.0  0.17031  0.80187  0.34298  1.0000
  C   C305      1.0  0.44115  0.00450  0.34177  1.0000
  C   C306      1.0  0.43207  0.98898  0.34464  1.0000
  C   C307      1.0  0.41399  0.98852  0.34626  1.0000
  C   C308      1.0  0.40512  0.00436  0.34259  1.0000
  C   C309      1.0  0.41387  0.02026  0.33844  1.0000
  C   C310      1.0  0.43194  0.01995  0.33918  1.0000
  H   H171      1.0  0.39206  0.00431  0.34289  1.0000
  H   H172      1.0  0.43861  0.03120  0.33776  1.0000
  H   H173      1.0  0.43883  0.97778  0.34539  1.0000
  C   C311      1.0  0.56879  0.00549  0.34177  1.0000
  C   C312      1.0  0.57803  0.02097  0.34578  1.0000
  C   C313      1.0  0.59610  0.02143  0.34694  1.0000
  C   C314      1.0  0.60497  0.00562  0.34256  1.0000
  C   C315      1.0  0.59622  0.98975  0.33772  1.0000
  C   C316      1.0  0.57814  0.99009  0.33810  1.0000
  H   H174      1.0  0.61803  0.00566  0.34286  1.0000
  H   H175      1.0  0.57157  0.97880  0.33513  1.0000
  H   H176      1.0  0.57137  0.03221  0.34833  1.0000
  C   C317      1.0  0.00550  0.44113  0.34177  1.0000
  C   C318      1.0  0.02102  0.43205  0.34461  1.0000
  C   C319      1.0  0.02148  0.41397  0.34623  1.0000
  C   C320      1.0  0.00564  0.40510  0.34258  1.0000
  C   C321      1.0  0.98974  0.41385  0.33847  1.0000
  C   C322      1.0  0.99005  0.43192  0.33921  1.0000
  H   H177      1.0  0.00569  0.39204  0.34288  1.0000
  H   H178      1.0  0.97880  0.43859  0.33782  1.0000
  H   H179      1.0  0.03222  0.43882  0.34532  1.0000
  C   C323      1.0  0.00449  0.56877  0.34177  1.0000
  C   C324      1.0  0.98902  0.57801  0.34578  1.0000
  C   C325      1.0  0.98855  0.59608  0.34694  1.0000
  C   C326      1.0  0.00436  0.60495  0.34254  1.0000
  C   C327      1.0  0.02023  0.59620  0.33772  1.0000
  C   C328      1.0  0.01990  0.57812  0.33809  1.0000
  H   H180      1.0  0.00432  0.61801  0.34283  1.0000
  H   H181      1.0  0.03119  0.57156  0.33512  1.0000
  H   H182      1.0  0.97778  0.57135  0.34833  1.0000
  C   C329      1.0  0.28991  0.41676  0.34244  1.0000
  C   C330      1.0  0.30408  0.40550  0.34049  1.0000
  C   C331      1.0  0.32111  0.41155  0.34138  1.0000
  C   C332      1.0  0.32390  0.42943  0.34366  1.0000
  C   C333      1.0  0.31009  0.44110  0.34580  1.0000
  C   C334      1.0  0.29328  0.43451  0.34555  1.0000
  H   H183      1.0  0.33614  0.43400  0.34411  1.0000
  H   H184      1.0  0.28326  0.44290  0.34789  1.0000
  H   H185      1.0  0.30198  0.39261  0.33797  1.0000
  C   C335      1.0  0.72009  0.59322  0.34243  1.0000
  C   C336      1.0  0.70592  0.60447  0.34046  1.0000
  C   C337      1.0  0.68889  0.59841  0.34134  1.0000
  C   C338      1.0  0.68610  0.58054  0.34360  1.0000
  C   C339      1.0  0.69991  0.56888  0.34575  1.0000
  C   C340      1.0  0.71672  0.57546  0.34553  1.0000
  H   H186      1.0  0.67386  0.57596  0.34403  1.0000
  H   H187      1.0  0.72674  0.56708  0.34788  1.0000
  H   H188      1.0  0.70801  0.61736  0.33796  1.0000
  C   C341      1.0  0.59323  0.28989  0.34244  1.0000
  C   C342      1.0  0.60449  0.30407  0.34049  1.0000
  C   C343      1.0  0.59843  0.32109  0.34137  1.0000
  C   C344      1.0  0.58056  0.32388  0.34360  1.0000
  C   C345      1.0  0.56889  0.31007  0.34573  1.0000
  C   C346      1.0  0.57548  0.29326  0.34551  1.0000
  H   H189      1.0  0.57598  0.33612  0.34403  1.0000
  H   H190      1.0  0.56710  0.28324  0.34784  1.0000
  H   H191      1.0  0.61738  0.30197  0.33801  1.0000
  C   C347      1.0  0.41676  0.72008  0.34242  1.0000
  C   C348      1.0  0.40551  0.70591  0.34048  1.0000
  C   C349      1.0  0.41157  0.68888  0.34139  1.0000
  C   C350      1.0  0.42944  0.68609  0.34365  1.0000
  C   C351      1.0  0.44111  0.69991  0.34578  1.0000
  C   C352      1.0  0.43452  0.71671  0.34553  1.0000
  H   H192      1.0  0.43402  0.67385  0.34409  1.0000
  H   H193      1.0  0.44290  0.72674  0.34785  1.0000
  H   H194      1.0  0.39262  0.70800  0.33798  1.0000
  C   C353      1.0  0.72149  0.41644  0.34399  1.0000
  C   C354      1.0  0.70732  0.40524  0.34648  1.0000
  C   C355      1.0  0.69021  0.41118  0.34595  1.0000
  C   C356      1.0  0.68757  0.42912  0.34218  1.0000
  C   C357      1.0  0.70135  0.44086  0.33865  1.0000
  C   C358      1.0  0.71813  0.43416  0.33994  1.0000
  H   H195      1.0  0.67535  0.43374  0.34182  1.0000
  H   H196      1.0  0.72823  0.44246  0.33763  1.0000
  H   H197      1.0  0.70954  0.39237  0.34891  1.0000
  C   C359      1.0  0.28850  0.59354  0.34400  1.0000
  C   C360      1.0  0.30268  0.60474  0.34646  1.0000
  C   C361      1.0  0.31979  0.59879  0.34596  1.0000
  C   C362      1.0  0.32243  0.58086  0.34221  1.0000
  C   C363      1.0  0.30864  0.56911  0.33870  1.0000
  C   C364      1.0  0.29186  0.57581  0.33998  1.0000
  H   H198      1.0  0.33464  0.57623  0.34185  1.0000
  H   H199      1.0  0.28177  0.56752  0.33769  1.0000
  H   H200      1.0  0.30047  0.61760  0.34887  1.0000
  C   C365      1.0  0.41646  0.28850  0.34398  1.0000
  C   C366      1.0  0.40526  0.30267  0.34645  1.0000
  C   C367      1.0  0.41120  0.31978  0.34595  1.0000
  C   C368      1.0  0.42914  0.32242  0.34219  1.0000
  C   C369      1.0  0.44088  0.30864  0.33868  1.0000
  C   C370      1.0  0.43418  0.29185  0.33996  1.0000
  H   H201      1.0  0.43376  0.33464  0.34182  1.0000
  H   H202      1.0  0.44247  0.28176  0.33766  1.0000
  H   H203      1.0  0.39239  0.30045  0.34886  1.0000
  C   C371      1.0  0.59354  0.72148  0.34397  1.0000
  C   C372      1.0  0.60475  0.70730  0.34644  1.0000
  C   C373      1.0  0.59880  0.69020  0.34593  1.0000
  C   C374      1.0  0.58087  0.68755  0.34218  1.0000
  C   C375      1.0  0.56912  0.70133  0.33867  1.0000
  C   C376      1.0  0.57581  0.71812  0.33995  1.0000
  H   H204      1.0  0.57625  0.67534  0.34181  1.0000
  H   H205      1.0  0.56752  0.72821  0.33766  1.0000
  H   H206      1.0  0.61761  0.70952  0.34883  1.0000
  C   C377      1.0  0.15937  0.33995  0.34709  1.0000
  C   C378      1.0  0.17360  0.35094  0.34400  1.0000
  C   C379      1.0  0.17158  0.36881  0.34040  1.0000
  C   C380      1.0  0.15486  0.37572  0.34029  1.0000
  C   C381      1.0  0.14029  0.36497  0.34387  1.0000
  C   C382      1.0  0.14280  0.34706  0.34697  1.0000
  H   H207      1.0  0.15332  0.38869  0.33894  1.0000
  H   H208      1.0  0.13245  0.33908  0.34928  1.0000
  H   H209      1.0  0.18565  0.34582  0.34413  1.0000
  C   C383      1.0  0.85061  0.67002  0.34752  1.0000
  C   C384      1.0  0.83640  0.65902  0.34432  1.0000
  C   C385      1.0  0.83843  0.64115  0.34070  1.0000
  C   C386      1.0  0.85515  0.63425  0.34071  1.0000
  C   C387      1.0  0.86972  0.64501  0.34443  1.0000
  C   C388      1.0  0.86719  0.66292  0.34751  1.0000
  H   H210      1.0  0.85670  0.62128  0.33935  1.0000
  H   H211      1.0  0.87753  0.67091  0.34986  1.0000
  H   H212      1.0  0.82434  0.66413  0.34438  1.0000
  C   C389      1.0  0.67004  0.15937  0.34751  1.0000
  C   C390      1.0  0.65904  0.17359  0.34434  1.0000
  C   C391      1.0  0.64116  0.17155  0.34077  1.0000
  C   C392      1.0  0.63428  0.15483  0.34077  1.0000
  C   C393      1.0  0.64503  0.14026  0.34446  1.0000
  C   C394      1.0  0.66294  0.14279  0.34753  1.0000
  H   H213      1.0  0.62130  0.15328  0.33943  1.0000
  H   H214      1.0  0.67093  0.13245  0.34987  1.0000
  H   H215      1.0  0.66414  0.18565  0.34442  1.0000
  C   C395      1.0  0.33997  0.85062  0.34711  1.0000
  C   C396      1.0  0.35097  0.83640  0.34405  1.0000
  C   C397      1.0  0.36884  0.83842  0.34046  1.0000
  C   C398      1.0  0.37574  0.85514  0.34037  1.0000
  C   C399      1.0  0.36499  0.86971  0.34392  1.0000
  C   C400      1.0  0.34708  0.86720  0.34700  1.0000
  H   H216      1.0  0.38871  0.85668  0.33902  1.0000
  H   H217      1.0  0.33910  0.87755  0.34929  1.0000
  H   H218      1.0  0.34585  0.82434  0.34420  1.0000
  C   C401      1.0  0.85192  0.33964  0.33974  1.0000
  C   C402      1.0  0.83773  0.35066  0.34316  1.0000
  C   C403      1.0  0.83980  0.36853  0.34660  1.0000
  C   C404      1.0  0.85653  0.37539  0.34635  1.0000
  C   C405      1.0  0.87108  0.36461  0.34244  1.0000
  C   C406      1.0  0.86852  0.34670  0.33935  1.0000
  H   H219      1.0  0.85810  0.38836  0.34762  1.0000
  H   H220      1.0  0.87884  0.33869  0.33690  1.0000
  H   H221      1.0  0.82566  0.34557  0.34326  1.0000
  C   C407      1.0  0.15809  0.67035  0.33933  1.0000
  C   C408      1.0  0.17228  0.65933  0.34285  1.0000
  C   C409      1.0  0.17021  0.64146  0.34626  1.0000
  C   C410      1.0  0.15348  0.63460  0.34593  1.0000
  C   C411      1.0  0.13893  0.64538  0.34189  1.0000
  C   C412      1.0  0.14150  0.66329  0.33883  1.0000
  H   H222      1.0  0.15191  0.62164  0.34712  1.0000
  H   H223      1.0  0.13118  0.67131  0.33636  1.0000
  H   H224      1.0  0.18435  0.66442  0.34302  1.0000
  C   C413      1.0  0.33965  0.15808  0.33971  1.0000
  C   C414      1.0  0.35068  0.17227  0.34309  1.0000
  C   C415      1.0  0.36854  0.17020  0.34652  1.0000
  C   C416      1.0  0.37540  0.15347  0.34633  1.0000
  C   C417      1.0  0.36462  0.13892  0.34242  1.0000
  C   C418      1.0  0.34671  0.14148  0.33935  1.0000
  H   H225      1.0  0.38837  0.15189  0.34751  1.0000
  H   H226      1.0  0.33870  0.13117  0.33691  1.0000
  H   H227      1.0  0.34559  0.18434  0.34313  1.0000
  C   C419      1.0  0.67035  0.85189  0.33937  1.0000
  C   C420      1.0  0.65933  0.83769  0.34289  1.0000
  C   C421      1.0  0.64146  0.83977  0.34629  1.0000
  C   C422      1.0  0.63460  0.85650  0.34588  1.0000
  C   C423      1.0  0.64539  0.87105  0.34185  1.0000
  C   C424      1.0  0.66329  0.86848  0.33882  1.0000
  H   H228      1.0  0.62164  0.85807  0.34706  1.0000
  H   H229      1.0  0.67131  0.87879  0.33635  1.0000
  H   H230      1.0  0.66442  0.82562  0.34306  1.0000
  C   C425      1.0  0.11017  0.11085  0.34521  1.0000
  C   C426      1.0  0.13585  0.13643  0.34810  1.0000
  C   C427      1.0  0.12424  0.13500  0.42107  1.0000
  C   C428      1.0  0.11142  0.12230  0.41829  1.0000
  H   H231      1.0  0.10305  0.12133  0.47104  1.0000
  C   C429      1.0  0.14880  0.14907  0.34690  1.0000
  C   C430      1.0  0.17457  0.17464  0.34537  1.0000
  C   C431      1.0  0.17502  0.16122  0.40906  1.0000
  C   C432      1.0  0.16223  0.14864  0.41023  1.0000
  H   H232      1.0  0.18451  0.16065  0.45629  1.0000
  H   H233      1.0  0.16286  0.13912  0.45730  1.0000
  N   N23       1.0  0.12544  0.14647  0.49441  1.0000
  O   O45       1.0  0.12815  0.13866  0.56689  1.0000
  O   O46       1.0  0.11206  0.15516  0.50261  1.0000
  C   C433      1.0  0.89983  0.89912  0.34516  1.0000
  C   C434      1.0  0.87415  0.87354  0.34807  1.0000
  C   C435      1.0  0.88576  0.87497  0.42105  1.0000
  C   C436      1.0  0.89859  0.88767  0.41825  1.0000
  H   H234      1.0  0.90695  0.88866  0.47100  1.0000
  C   C437      1.0  0.86121  0.86090  0.34688  1.0000
  C   C438      1.0  0.83544  0.83533  0.34536  1.0000
  C   C439      1.0  0.83498  0.84876  0.40900  1.0000
  C   C440      1.0  0.84777  0.86132  0.41019  1.0000
  H   H235      1.0  0.82549  0.84932  0.45624  1.0000
  H   H236      1.0  0.84714  0.87085  0.45724  1.0000
  N   N24       1.0  0.88457  0.86350  0.49440  1.0000
  O   O47       1.0  0.88185  0.87131  0.56687  1.0000
  O   O48       1.0  0.89795  0.85482  0.50261  1.0000
  C   C441      1.0  0.89913  0.11016  0.34516  1.0000
  C   C442      1.0  0.87356  0.13585  0.34807  1.0000
  C   C443      1.0  0.87499  0.12424  0.42106  1.0000
  C   C444      1.0  0.88769  0.11142  0.41828  1.0000
  H   H237      1.0  0.88867  0.10305  0.47104  1.0000
  C   C445      1.0  0.86092  0.14879  0.34687  1.0000
  C   C446      1.0  0.83535  0.17456  0.34537  1.0000
  C   C447      1.0  0.84878  0.17502  0.40901  1.0000
  C   C448      1.0  0.86135  0.16223  0.41018  1.0000
  H   H238      1.0  0.84934  0.18451  0.45626  1.0000
  H   H239      1.0  0.87087  0.16285  0.45723  1.0000
  N   N25       1.0  0.86352  0.12544  0.49442  1.0000
  O   O49       1.0  0.87134  0.12816  0.56688  1.0000
  O   O50       1.0  0.85484  0.11206  0.50266  1.0000
  C   C449      1.0  0.11086  0.89982  0.34518  1.0000
  C   C450      1.0  0.13644  0.87414  0.34807  1.0000
  C   C451      1.0  0.13500  0.88574  0.42106  1.0000
  C   C452      1.0  0.12230  0.89857  0.41828  1.0000
  H   H240      1.0  0.12132  0.90693  0.47104  1.0000
  C   C453      1.0  0.14908  0.86120  0.34686  1.0000
  C   C454      1.0  0.17465  0.83543  0.34529  1.0000
  C   C455      1.0  0.16123  0.83498  0.40898  1.0000
  C   C456      1.0  0.14866  0.84776  0.41016  1.0000
  H   H241      1.0  0.16067  0.82547  0.45617  1.0000
  H   H242      1.0  0.13913  0.84713  0.45720  1.0000
  N   N26       1.0  0.14647  0.88454  0.49442  1.0000
  O   O51       1.0  0.13866  0.88183  0.56688  1.0000
  O   O52       1.0  0.15515  0.89792  0.50265  1.0000
  C   C457      1.0  0.08900  0.97088  0.42151  1.0000
  C   C458      1.0  0.09096  0.98865  0.41717  1.0000
  C   C459      1.0  0.10588  0.02491  0.39873  1.0000
  C   C460      1.0  0.10368  0.04272  0.39708  1.0000
  H   H243      1.0  0.11307  0.01958  0.44896  1.0000
  H   H244      1.0  0.10909  0.04990  0.44706  1.0000
  H   H245      1.0  0.08280  0.96567  0.47561  1.0000
  H   H246      1.0  0.08603  0.99591  0.46825  1.0000
  C   C461      1.0  0.92101  0.03910  0.42153  1.0000
  C   C462      1.0  0.91904  0.02133  0.41721  1.0000
  C   C463      1.0  0.90411  0.98507  0.39879  1.0000
  C   C464      1.0  0.90630  0.96727  0.39710  1.0000
  H   H247      1.0  0.89694  0.99040  0.44908  1.0000
  H   H248      1.0  0.90091  0.96008  0.44713  1.0000
  H   H249      1.0  0.92722  0.04431  0.47559  1.0000
  H   H250      1.0  0.92399  0.01406  0.46821  1.0000
  C   C465      1.0  0.03910  0.08897  0.42162  1.0000
  C   C466      1.0  0.02134  0.09095  0.41733  1.0000
  C   C467      1.0  0.98508  0.10586  0.39887  1.0000
  C   C468      1.0  0.96727  0.10365  0.39723  1.0000
  H   H251      1.0  0.99040  0.11306  0.44904  1.0000
  H   H252      1.0  0.96008  0.10909  0.44709  1.0000
  H   H253      1.0  0.04432  0.08281  0.47581  1.0000
  H   H254      1.0  0.01407  0.08602  0.46840  1.0000
  C   C469      1.0  0.97089  0.92104  0.42149  1.0000
  C   C470      1.0  0.98865  0.91907  0.41720  1.0000
  C   C471      1.0  0.02491  0.90414  0.39881  1.0000
  C   C472      1.0  0.04271  0.90634  0.39714  1.0000
  H   H255      1.0  0.01957  0.89697  0.44905  1.0000
  H   H256      1.0  0.04989  0.90092  0.44713  1.0000
  H   H257      1.0  0.96567  0.92723  0.47561  1.0000
  H   H258      1.0  0.99592  0.92401  0.46823  1.0000
  C   C473      1.0  0.16930  0.31434  0.42634  1.0000
  C   C474      1.0  0.17440  0.29715  0.42476  1.0000
  C   C475      1.0  0.17224  0.25816  0.40792  1.0000
  C   C476      1.0  0.17788  0.24112  0.40846  1.0000
  H   H259      1.0  0.16285  0.26172  0.45202  1.0000
  H   H260      1.0  0.17257  0.23289  0.45403  1.0000
  H   H261      1.0  0.17109  0.32128  0.48396  1.0000
  H   H262      1.0  0.17971  0.29205  0.48171  1.0000
  C   C477      1.0  0.84066  0.69563  0.42669  1.0000
  C   C478      1.0  0.83558  0.71282  0.42509  1.0000
  C   C479      1.0  0.83775  0.75181  0.40815  1.0000
  C   C480      1.0  0.83211  0.76885  0.40862  1.0000
  H   H263      1.0  0.84713  0.74825  0.45230  1.0000
  H   H264      1.0  0.83742  0.77708  0.45418  1.0000
  H   H265      1.0  0.83886  0.68869  0.48431  1.0000
  H   H266      1.0  0.83025  0.71793  0.48198  1.0000
  C   C481      1.0  0.69566  0.16930  0.42674  1.0000
  C   C482      1.0  0.71285  0.17439  0.42513  1.0000
  C   C483      1.0  0.75184  0.17222  0.40807  1.0000
  C   C484      1.0  0.76887  0.17787  0.40859  1.0000
  H   H267      1.0  0.74827  0.16285  0.45222  1.0000
  H   H268      1.0  0.77710  0.17255  0.45412  1.0000
  H   H269      1.0  0.68872  0.17107  0.48442  1.0000
  H   H270      1.0  0.71796  0.17969  0.48207  1.0000
  C   C485      1.0  0.31436  0.84068  0.42635  1.0000
  C   C486      1.0  0.29717  0.83560  0.42475  1.0000
  C   C487      1.0  0.25818  0.83776  0.40782  1.0000
  C   C488      1.0  0.24114  0.83212  0.40835  1.0000
  H   H271      1.0  0.26174  0.84714  0.45197  1.0000
  H   H272      1.0  0.23291  0.83743  0.45394  1.0000
  H   H273      1.0  0.32130  0.83889  0.48398  1.0000
  H   H274      1.0  0.29206  0.83027  0.48166  1.0000
  C   C489      1.0  0.84899  0.32178  0.33794  1.0000
  C   C490      1.0  0.83777  0.28713  0.34178  1.0000
  C   C491      1.0  0.84450  0.29489  0.42075  1.0000
  C   C492      1.0  0.85006  0.31210  0.41782  1.0000
  H   H275      1.0  0.85442  0.31775  0.47561  1.0000
  C   C493      1.0  0.83163  0.26997  0.34094  1.0000
  C   C494      1.0  0.81969  0.23541  0.33926  1.0000
  C   C495      1.0  0.81254  0.24762  0.39849  1.0000
  C   C496      1.0  0.81843  0.26459  0.39944  1.0000
  H   H276      1.0  0.80329  0.24413  0.44348  1.0000
  H   H277      1.0  0.81298  0.27305  0.44335  1.0000
  N   N27       1.0  0.84569  0.28528  0.50123  1.0000
  O   O53       1.0  0.83702  0.29190  0.56324  1.0000
  O   O54       1.0  0.86089  0.28400  0.52713  1.0000
  C   C497      1.0  0.16103  0.68821  0.33758  1.0000
  C   C498      1.0  0.17223  0.72286  0.34143  1.0000
  C   C499      1.0  0.16550  0.71510  0.42039  1.0000
  C   C500      1.0  0.15994  0.69789  0.41746  1.0000
  H   H278      1.0  0.15560  0.69224  0.47526  1.0000
  C   C501      1.0  0.17838  0.74003  0.34061  1.0000
  C   C502      1.0  0.19032  0.77458  0.33898  1.0000
  C   C503      1.0  0.19748  0.76237  0.39815  1.0000
  C   C504      1.0  0.19157  0.74540  0.39910  1.0000
  H   H279      1.0  0.20672  0.76586  0.44319  1.0000
  H   H280      1.0  0.19703  0.73694  0.44300  1.0000
  N   N28       1.0  0.16432  0.72470  0.50089  1.0000
  O   O55       1.0  0.17299  0.71808  0.56289  1.0000
  O   O56       1.0  0.14912  0.72599  0.52680  1.0000
  C   C505      1.0  0.32180  0.16102  0.33787  1.0000
  C   C506      1.0  0.28714  0.17222  0.34175  1.0000
  C   C507      1.0  0.29490  0.16550  0.42071  1.0000
  C   C508      1.0  0.31212  0.15995  0.41778  1.0000
  H   H281      1.0  0.31777  0.15558  0.47556  1.0000
  C   C509      1.0  0.26997  0.17835  0.34092  1.0000
  C   C510      1.0  0.23541  0.19029  0.33925  1.0000
  C   C511      1.0  0.24762  0.19745  0.39842  1.0000
  C   C512      1.0  0.26460  0.19155  0.39940  1.0000
  H   H282      1.0  0.24414  0.20670  0.44344  1.0000
  H   H283      1.0  0.27305  0.19702  0.44329  1.0000
  N   N29       1.0  0.28530  0.16431  0.50121  1.0000
  O   O57       1.0  0.29192  0.17298  0.56320  1.0000
  O   O58       1.0  0.28403  0.14911  0.52712  1.0000
  C   C513      1.0  0.68821  0.84894  0.33760  1.0000
  C   C514      1.0  0.72286  0.83775  0.34152  1.0000
  C   C515      1.0  0.71509  0.84447  0.42049  1.0000
  C   C516      1.0  0.69787  0.85001  0.41753  1.0000
  H   H284      1.0  0.69222  0.85437  0.47531  1.0000
  C   C517      1.0  0.74003  0.83162  0.34073  1.0000
  C   C518      1.0  0.77459  0.81968  0.33912  1.0000
  C   C519      1.0  0.76238  0.81253  0.39831  1.0000
  C   C520      1.0  0.74540  0.81842  0.39921  1.0000
  H   H285      1.0  0.76586  0.80326  0.44326  1.0000
  H   H286      1.0  0.73694  0.81295  0.44306  1.0000
  N   N30       1.0  0.72468  0.84565  0.50102  1.0000
  O   O59       1.0  0.71806  0.83696  0.56296  1.0000
  O   O60       1.0  0.72596  0.86084  0.52697  1.0000
  C   C521      1.0  0.38064  0.11507  0.41305  1.0000
  C   C522      1.0  0.38660  0.09808  0.41141  1.0000
  C   C523      1.0  0.38590  0.05800  0.39935  1.0000
  C   C524      1.0  0.39283  0.04134  0.39843  1.0000
  H   H287      1.0  0.37713  0.06106  0.44779  1.0000
  H   H288      1.0  0.38922  0.03295  0.44768  1.0000
  H   H289      1.0  0.38277  0.12231  0.46930  1.0000
  H   H290      1.0  0.39320  0.09360  0.46599  1.0000
  C   C525      1.0  0.62912  0.89482  0.41176  1.0000
  C   C526      1.0  0.62317  0.91182  0.41017  1.0000
  C   C527      1.0  0.62400  0.95192  0.39938  1.0000
  C   C528      1.0  0.61709  0.96859  0.39841  1.0000
  H   H291      1.0  0.63263  0.94880  0.44836  1.0000
  H   H292      1.0  0.62058  0.97693  0.44816  1.0000
  H   H293      1.0  0.62680  0.88752  0.46757  1.0000
  H   H294      1.0  0.61639  0.91623  0.46427  1.0000
  C   C529      1.0  0.89494  0.38061  0.41312  1.0000
  C   C530      1.0  0.91193  0.38657  0.41147  1.0000
  C   C531      1.0  0.95200  0.38587  0.39936  1.0000
  C   C532      1.0  0.96866  0.39281  0.39849  1.0000
  H   H295      1.0  0.94894  0.37710  0.44777  1.0000
  H   H296      1.0  0.97706  0.38918  0.44764  1.0000
  H   H297      1.0  0.88770  0.38274  0.46937  1.0000
  H   H298      1.0  0.91641  0.39316  0.46605  1.0000
  C   C533      1.0  0.11517  0.62909  0.41176  1.0000
  C   C534      1.0  0.09817  0.62314  0.41015  1.0000
  C   C535      1.0  0.05807  0.62396  0.39945  1.0000
  C   C536      1.0  0.04140  0.61705  0.39848  1.0000
  H   H299      1.0  0.06119  0.63259  0.44847  1.0000
  H   H300      1.0  0.03307  0.62054  0.44824  1.0000
  H   H301      1.0  0.12248  0.62677  0.46753  1.0000
  H   H302      1.0  0.09377  0.61634  0.46423  1.0000
  C   C537      1.0  0.63820  0.12332  0.34694  1.0000
  C   C538      1.0  0.62566  0.08876  0.35079  1.0000
  C   C539      1.0  0.63456  0.09570  0.42585  1.0000
  C   C540      1.0  0.64089  0.11267  0.42246  1.0000
  H   H303      1.0  0.64742  0.11737  0.47681  1.0000
  C   C541      1.0  0.61888  0.07169  0.35124  1.0000
  C   C542      1.0  0.60459  0.03772  0.35149  1.0000
  C   C543      1.0  0.59959  0.05013  0.41575  1.0000
  C   C544      1.0  0.60663  0.06668  0.41600  1.0000
  H   H304      1.0  0.59057  0.04723  0.46316  1.0000
  H   H305      1.0  0.60238  0.07526  0.46289  1.0000
  N   N31       1.0  0.63738  0.08536  0.50255  1.0000
  O   O61       1.0  0.63067  0.09178  0.57152  1.0000
  O   O62       1.0  0.65302  0.08324  0.51697  1.0000
  C   C545      1.0  0.37184  0.88665  0.34632  1.0000
  C   C546      1.0  0.38439  0.92120  0.35013  1.0000
  C   C547      1.0  0.37573  0.91418  0.42573  1.0000
  C   C548      1.0  0.36938  0.89721  0.42239  1.0000
  H   H306      1.0  0.36302  0.89245  0.47714  1.0000
  C   C549      1.0  0.39119  0.93827  0.35052  1.0000
  C   C550      1.0  0.40552  0.97223  0.35066  1.0000
  C   C551      1.0  0.41067  0.95974  0.41419  1.0000
  C   C552      1.0  0.40362  0.94319  0.41452  1.0000
  H   H307      1.0  0.41981  0.96258  0.46106  1.0000
  H   H308      1.0  0.40799  0.93457  0.46083  1.0000
  N   N32       1.0  0.37314  0.92444  0.50298  1.0000
  O   O63       1.0  0.38005  0.91794  0.57118  1.0000
  O   O64       1.0  0.35754  0.92654  0.51877  1.0000
  C   C553      1.0  0.12335  0.37182  0.34629  1.0000
  C   C554      1.0  0.08879  0.38436  0.35009  1.0000
  C   C555      1.0  0.09583  0.37572  0.42575  1.0000
  C   C556      1.0  0.11280  0.36938  0.42241  1.0000
  H   H309      1.0  0.11757  0.36303  0.47720  1.0000
  C   C557      1.0  0.07173  0.39116  0.35048  1.0000
  C   C558      1.0  0.03778  0.40551  0.35057  1.0000
  C   C559      1.0  0.05027  0.41066  0.41408  1.0000
  C   C560      1.0  0.06681  0.40360  0.41441  1.0000
  H   H310      1.0  0.04743  0.41981  0.46092  1.0000
  H   H311      1.0  0.07544  0.40798  0.46068  1.0000
  N   N33       1.0  0.08558  0.37316  0.50306  1.0000
  O   O65       1.0  0.09209  0.38009  0.57118  1.0000
  O   O66       1.0  0.08349  0.35756  0.51900  1.0000
  C   C561      1.0  0.88667  0.63817  0.34692  1.0000
  C   C562      1.0  0.92123  0.62563  0.35077  1.0000
  C   C563      1.0  0.91429  0.63453  0.42582  1.0000
  C   C564      1.0  0.89731  0.64087  0.42243  1.0000
  H   H312      1.0  0.89262  0.64740  0.47678  1.0000
  C   C565      1.0  0.93830  0.61886  0.35122  1.0000
  C   C566      1.0  0.97227  0.60457  0.35145  1.0000
  C   C567      1.0  0.95985  0.59957  0.41572  1.0000
  C   C568      1.0  0.94330  0.60661  0.41601  1.0000
  H   H313      1.0  0.96276  0.59054  0.46314  1.0000
  H   H314      1.0  0.93473  0.60235  0.46286  1.0000
  N   N34       1.0  0.92463  0.63736  0.50253  1.0000
  O   O67       1.0  0.91820  0.63065  0.57150  1.0000
  O   O68       1.0  0.92674  0.65300  0.51692  1.0000
  C   C569      1.0  0.46862  0.00903  0.41827  1.0000
  C   C570      1.0  0.48657  0.00897  0.41704  1.0000
  C   C571      1.0  0.52317  0.99441  0.39829  1.0000
  C   C572      1.0  0.54114  0.99447  0.39874  1.0000
  H   H315      1.0  0.51686  0.98626  0.44065  1.0000
  H   H316      1.0  0.54735  0.98658  0.44281  1.0000
  H   H317      1.0  0.46242  0.01217  0.47664  1.0000
  H   H318      1.0  0.49296  0.01226  0.47459  1.0000
  C   C573      1.0  0.00096  0.46860  0.41825  1.0000
  C   C574      1.0  0.00103  0.48655  0.41703  1.0000
  C   C575      1.0  0.01559  0.52315  0.39830  1.0000
  C   C576      1.0  0.01552  0.54112  0.39874  1.0000
  H   H319      1.0  0.02373  0.51684  0.44067  1.0000
  H   H320      1.0  0.02341  0.54733  0.44281  1.0000
  H   H321      1.0  0.99782  0.46241  0.47662  1.0000
  H   H322      1.0  0.99773  0.49295  0.47457  1.0000
  C   C577      1.0  0.18661  0.37900  0.33941  1.0000
  C   C578      1.0  0.22052  0.39273  0.34423  1.0000
  C   C579      1.0  0.21066  0.39148  0.42444  1.0000
  C   C580      1.0  0.19390  0.38462  0.42111  1.0000
  H   H323      1.0  0.18721  0.38316  0.47986  1.0000
  C   C581      1.0  0.23784  0.39870  0.34399  1.0000
  C   C582      1.0  0.27265  0.41052  0.34188  1.0000
  C   C583      1.0  0.26753  0.39673  0.39730  1.0000
  C   C584      1.0  0.25049  0.39097  0.39847  1.0000
  H   H324      1.0  0.27614  0.39094  0.43911  1.0000
  H   H325      1.0  0.24741  0.38088  0.43911  1.0000
  N   N35       1.0  0.21769  0.39716  0.50695  1.0000
  O   O69       1.0  0.21854  0.38526  0.56349  1.0000
  O   O70       1.0  0.20904  0.40912  0.53995  1.0000
  C   C585      1.0  0.82341  0.63095  0.33964  1.0000
  C   C586      1.0  0.78947  0.61724  0.34438  1.0000
  C   C587      1.0  0.79933  0.61848  0.42460  1.0000
  C   C588      1.0  0.81610  0.62533  0.42129  1.0000
  H   H326      1.0  0.82278  0.62680  0.48006  1.0000
  C   C589      1.0  0.77216  0.61127  0.34410  1.0000
  C   C590      1.0  0.73735  0.59945  0.34191  1.0000
  C   C591      1.0  0.74247  0.61324  0.39737  1.0000
  C   C592      1.0  0.75951  0.61901  0.39857  1.0000
  H   H327      1.0  0.73385  0.61904  0.43912  1.0000
  H   H328      1.0  0.76258  0.62909  0.43920  1.0000
  N   N36       1.0  0.79229  0.61281  0.50710  1.0000
  O   O71       1.0  0.79145  0.62471  0.56363  1.0000
  O   O72       1.0  0.80093  0.60085  0.54012  1.0000
  C   C593      1.0  0.63096  0.18657  0.33975  1.0000
  C   C594      1.0  0.61725  0.22051  0.34441  1.0000
  C   C595      1.0  0.61847  0.21064  0.42464  1.0000
  C   C596      1.0  0.62532  0.19388  0.42136  1.0000
  H   H329      1.0  0.62678  0.18720  0.48014  1.0000
  C   C597      1.0  0.61129  0.23783  0.34411  1.0000
  C   C598      1.0  0.59947  0.27263  0.34191  1.0000
  C   C599      1.0  0.61325  0.26751  0.39741  1.0000
  C   C600      1.0  0.61902  0.25047  0.39861  1.0000
  H   H330      1.0  0.61904  0.27612  0.43921  1.0000
  H   H331      1.0  0.62909  0.24739  0.43931  1.0000
  N   N37       1.0  0.61277  0.21769  0.50710  1.0000
  O   O73       1.0  0.62466  0.21852  0.56371  1.0000
  O   O74       1.0  0.60081  0.20904  0.54003  1.0000
  C   C601      1.0  0.37903  0.82339  0.33954  1.0000
  C   C602      1.0  0.39275  0.78947  0.34426  1.0000
  C   C603      1.0  0.39154  0.79934  0.42446  1.0000
  C   C604      1.0  0.38470  0.81611  0.42115  1.0000
  H   H332      1.0  0.38323  0.82279  0.47992  1.0000
  C   C605      1.0  0.39871  0.77215  0.34399  1.0000
  C   C606      1.0  0.41053  0.73734  0.34185  1.0000
  C   C607      1.0  0.39675  0.74246  0.39734  1.0000
  C   C608      1.0  0.39098  0.75951  0.39853  1.0000
  H   H333      1.0  0.39096  0.73386  0.43920  1.0000
  H   H334      1.0  0.38091  0.76259  0.43924  1.0000
  N   N38       1.0  0.39724  0.79230  0.50693  1.0000
  O   O75       1.0  0.38536  0.79148  0.56357  1.0000
  O   O76       1.0  0.40921  0.80094  0.53980  1.0000
  C   C609      1.0  0.81498  0.38015  0.42693  1.0000
  C   C610      1.0  0.79843  0.38712  0.42472  1.0000
  C   C611      1.0  0.76842  0.41201  0.39931  1.0000
  C   C612      1.0  0.75141  0.41785  0.39973  1.0000
  H   H335      1.0  0.77714  0.41799  0.43975  1.0000
  H   H336      1.0  0.74831  0.42772  0.44177  1.0000
  H   H337      1.0  0.81959  0.37551  0.48661  1.0000
  H   H338      1.0  0.79157  0.38747  0.48336  1.0000
  C   C613      1.0  0.19503  0.62988  0.42668  1.0000
  C   C614      1.0  0.21158  0.62290  0.42452  1.0000
  C   C615      1.0  0.24158  0.59799  0.39932  1.0000
  C   C616      1.0  0.25859  0.59214  0.39976  1.0000
  H   H339      1.0  0.23286  0.59202  0.43981  1.0000
  H   H340      1.0  0.26169  0.58229  0.44189  1.0000
  H   H341      1.0  0.19043  0.63455  0.48629  1.0000
  H   H342      1.0  0.21844  0.62258  0.48314  1.0000
  C   C617      1.0  0.38014  0.19502  0.42676  1.0000
  C   C618      1.0  0.38710  0.21157  0.42458  1.0000
  C   C619      1.0  0.41201  0.24158  0.39937  1.0000
  C   C620      1.0  0.41786  0.25858  0.39976  1.0000
  H   H343      1.0  0.41799  0.23286  0.43983  1.0000
  H   H344      1.0  0.42771  0.26169  0.44188  1.0000
  H   H345      1.0  0.37546  0.19042  0.48637  1.0000
  H   H346      1.0  0.38742  0.21843  0.48321  1.0000
  C   C621      1.0  0.62991  0.81493  0.42663  1.0000
  C   C622      1.0  0.62293  0.79839  0.42450  1.0000
  C   C623      1.0  0.59799  0.76839  0.39939  1.0000
  C   C624      1.0  0.59215  0.75139  0.39978  1.0000
  H   H347      1.0  0.59202  0.77711  0.43990  1.0000
  H   H348      1.0  0.58230  0.74828  0.44194  1.0000
  H   H349      1.0  0.63460  0.81953  0.48622  1.0000
  H   H350      1.0  0.62263  0.79152  0.48310  1.0000
  C   C625      1.0  0.30726  0.46925  0.41985  1.0000
  C   C626      1.0  0.30822  0.48721  0.41685  1.0000
  C   C627      1.0  0.32257  0.52428  0.39943  1.0000
  C   C628      1.0  0.32154  0.54228  0.39818  1.0000
  H   H351      1.0  0.33000  0.51853  0.44728  1.0000
  H   H352      1.0  0.32798  0.54903  0.44637  1.0000
  H   H353      1.0  0.30244  0.46354  0.47637  1.0000
  H   H354      1.0  0.30393  0.49399  0.47123  1.0000
  C   C629      1.0  0.70275  0.54071  0.41978  1.0000
  C   C630      1.0  0.70179  0.52276  0.41677  1.0000
  C   C631      1.0  0.68743  0.48570  0.39939  1.0000
  C   C632      1.0  0.68845  0.46769  0.39811  1.0000
  H   H355      1.0  0.68001  0.49145  0.44729  1.0000
  H   H356      1.0  0.68203  0.46095  0.44640  1.0000
  H   H357      1.0  0.70758  0.54642  0.47628  1.0000
  H   H358      1.0  0.70609  0.51598  0.47113  1.0000
  C   C633      1.0  0.54074  0.30723  0.41974  1.0000
  C   C634      1.0  0.52278  0.30819  0.41673  1.0000
  C   C635      1.0  0.48572  0.32256  0.39939  1.0000
  C   C636      1.0  0.46771  0.32154  0.39811  1.0000
  H   H359      1.0  0.49147  0.32998  0.44728  1.0000
  H   H360      1.0  0.46096  0.32795  0.44640  1.0000
  H   H361      1.0  0.54645  0.30240  0.47623  1.0000
  H   H362      1.0  0.51600  0.30390  0.47112  1.0000
  C   C637      1.0  0.46927  0.70275  0.41978  1.0000
  C   C638      1.0  0.48722  0.70180  0.41678  1.0000
  C   C639      1.0  0.52429  0.68742  0.39947  1.0000
  C   C640      1.0  0.54229  0.68844  0.39816  1.0000
  H   H363      1.0  0.51854  0.68001  0.44741  1.0000
  H   H364      1.0  0.54904  0.68203  0.44649  1.0000
  H   H365      1.0  0.46356  0.70761  0.47623  1.0000
  H   H366      1.0  0.49400  0.70610  0.47112  1.0000
  C   C641      1.0  0.33500  0.39968  0.34195  1.0000
  C   C642      1.0  0.36146  0.37415  0.34749  1.0000
  C   C643      1.0  0.35763  0.38420  0.42480  1.0000
  C   C644      1.0  0.34467  0.39687  0.42084  1.0000
  H   H367      1.0  0.34201  0.40386  0.47739  1.0000
  C   C645      1.0  0.37416  0.36087  0.34836  1.0000
  C   C646      1.0  0.39922  0.33376  0.34840  1.0000
  C   C647      1.0  0.38519  0.33374  0.40872  1.0000
  C   C648      1.0  0.37301  0.34699  0.40904  1.0000
  H   H368      1.0  0.38374  0.32399  0.45395  1.0000
  H   H369      1.0  0.36301  0.34624  0.45314  1.0000
  N   N39       1.0  0.36707  0.38156  0.50486  1.0000
  O   O77       1.0  0.35751  0.37716  0.56871  1.0000
  O   O78       1.0  0.37506  0.39477  0.52741  1.0000
  C   C649      1.0  0.67500  0.61029  0.34189  1.0000
  C   C650      1.0  0.64855  0.63582  0.34747  1.0000
  C   C651      1.0  0.65236  0.62577  0.42474  1.0000
  C   C652      1.0  0.66532  0.61308  0.42076  1.0000
  H   H370      1.0  0.66798  0.60610  0.47730  1.0000
  C   C653      1.0  0.63584  0.64911  0.34835  1.0000
  C   C654      1.0  0.61078  0.67621  0.34840  1.0000
  C   C655      1.0  0.62481  0.67624  0.40874  1.0000
  C   C656      1.0  0.63699  0.66298  0.40908  1.0000
  H   H371      1.0  0.62626  0.68598  0.45396  1.0000
  H   H372      1.0  0.64699  0.66373  0.45318  1.0000
  N   N40       1.0  0.64292  0.62840  0.50478  1.0000
  O   O79       1.0  0.65247  0.63278  0.56868  1.0000
  O   O80       1.0  0.63492  0.61518  0.52726  1.0000
  C   C657      1.0  0.61031  0.33498  0.34193  1.0000
  C   C658      1.0  0.63584  0.36144  0.34749  1.0000
  C   C659      1.0  0.62579  0.35762  0.42478  1.0000
  C   C660      1.0  0.61311  0.34466  0.42081  1.0000
  H   H373      1.0  0.60612  0.34199  0.47736  1.0000
  C   C661      1.0  0.64912  0.37414  0.34837  1.0000
  C   C662      1.0  0.67623  0.39920  0.34843  1.0000
  C   C663      1.0  0.67625  0.38517  0.40876  1.0000
  C   C664      1.0  0.66300  0.37299  0.40906  1.0000
  H   H374      1.0  0.68599  0.38372  0.45399  1.0000
  H   H375      1.0  0.66374  0.36299  0.45321  1.0000
  N   N41       1.0  0.62842  0.36706  0.50484  1.0000
  O   O81       1.0  0.63281  0.35750  0.56871  1.0000
  O   O82       1.0  0.61521  0.37505  0.52736  1.0000
  C   C665      1.0  0.39970  0.67499  0.34194  1.0000
  C   C666      1.0  0.37417  0.64853  0.34748  1.0000
  C   C667      1.0  0.38423  0.65233  0.42475  1.0000
  C   C668      1.0  0.39691  0.66529  0.42076  1.0000
  H   H376      1.0  0.40390  0.66795  0.47732  1.0000
  C   C669      1.0  0.36088  0.63582  0.34836  1.0000
  C   C670      1.0  0.33377  0.61077  0.34843  1.0000
  C   C671      1.0  0.33375  0.62479  0.40877  1.0000
  C   C672      1.0  0.34701  0.63697  0.40909  1.0000
  H   H377      1.0  0.32401  0.62624  0.45401  1.0000
  H   H378      1.0  0.34627  0.64697  0.45323  1.0000
  N   N42       1.0  0.38160  0.64289  0.50476  1.0000
  O   O83       1.0  0.37722  0.65243  0.56870  1.0000
  O   O84       1.0  0.39482  0.63489  0.52720  1.0000
