data_image0
_chemical_formula_structural       CNCOCH3CNCOCH3CNCOCH3CNCOCH3CNCOCH3CNCOCH3NC2OCH3NC2OCH3NC2OCH3NC2OCH3NC2OCH3NC2OCH3NC2OCH3NC2OCH3NC2OCH3NC2OCH3NC2OCH3NC2OCH3CNCOCH3CNCOCH3CNCOCH3CNCOCH3CNCOCH3CNCOCH3NC2OCH3NC2OCH3NC2OCH3NC2OCH3NC2OCH3NC2OCH3NC2OCH3NC2OCH3NC2OCH3NC2OCH3NC2OCH3NC2OCH3CNCNCNCNCNCNCNCNCNCNCNCNCNCNCNCNCNCNCNCNCNCNCNCNCNCNCNCNCNCNCNCNCNCNCNCNCNCNCNCNCNCNCNCNCNCNCNCNCNCNCNCNCNCNCNCNCNCNCNCNCNCNCNCNCNCNCNCNCNCNCNCN2C2OCH3NC2OCH3NC2OCH3NC2OCH3NC2OCH3NC2OCH3CNCOCH3CNCOCH3CNCOCH3CNCOCH3CNCOCH3CNCOCH3CNCOCH3CNCOCH3CNCOCH3CNCOCH3CNCOCH3CNCOCH3NC2OCH3NC2OCH3NC2OCH3NC2OCH3NC2OCH3NC2OCH3CNCOCH3CNCOCH3CNCOCH3CNCOCH3CNCOCH3CNCOCH3CNCOCH3CNCOCH3CNCOCH3CNCOCH3CNCOCH3CNCOCH3
_chemical_formula_sum              "C288 N144 O72 H216"
_cell_length_a       53.3885
_cell_length_b       53.3885
_cell_length_c       14.8085
_cell_angle_alpha    90
_cell_angle_beta     90
_cell_angle_gamma    120

_space_group_name_H-M_alt    "P 1"
_space_group_IT_number       1

loop_
  _space_group_symop_operation_xyz
  'x, y, z'

loop_
  _atom_site_type_symbol
  _atom_site_label
  _atom_site_symmetry_multiplicity
  _atom_site_fract_x
  _atom_site_fract_y
  _atom_site_fract_z
  _atom_site_occupancy
  C   C1        1.0  0.14388  0.45992  0.37499  1.0000
  N   N1        1.0  0.10975  0.41334  0.31587  1.0000
  C   C2        1.0  0.12167  0.44275  0.31293  1.0000
  O   O1        1.0  0.11368  0.45490  0.24570  1.0000
  C   C3        1.0  0.12749  0.45665  0.16063  1.0000
  H   H1        1.0  0.12013  0.46686  0.11187  1.0000
  H   H2        1.0  0.12164  0.43518  0.13518  1.0000
  H   H3        1.0  0.15102  0.46982  0.16580  1.0000
  C   C4        1.0  0.55637  0.68741  0.37401  1.0000
  N   N2        1.0  0.60282  0.70008  0.31345  1.0000
  C   C5        1.0  0.57341  0.68259  0.31086  1.0000
  O   O2        1.0  0.56115  0.66273  0.24290  1.0000
  C   C6        1.0  0.55921  0.67516  0.15879  1.0000
  H   H4        1.0  0.54891  0.65780  0.10935  1.0000
  H   H5        1.0  0.58061  0.69091  0.13327  1.0000
  H   H6        1.0  0.54601  0.68545  0.16540  1.0000
  C   C7        1.0  0.32865  0.87188  0.37483  1.0000
  N   N3        1.0  0.31621  0.90599  0.31564  1.0000
  C   C8        1.0  0.33370  0.89407  0.31271  1.0000
  O   O3        1.0  0.35381  0.90202  0.24540  1.0000
  C   C9        1.0  0.34171  0.88817  0.16042  1.0000
  H   H7        1.0  0.35927  0.89550  0.11159  1.0000
  H   H8        1.0  0.32609  0.89401  0.13498  1.0000
  H   H9        1.0  0.33136  0.86464  0.16572  1.0000
  C   C10       1.0  0.87518  0.55289  0.37432  1.0000
  N   N4        1.0  0.90918  0.59943  0.31475  1.0000
  C   C11       1.0  0.89727  0.57003  0.31191  1.0000
  O   O4        1.0  0.90514  0.55784  0.24444  1.0000
  C   C12       1.0  0.89119  0.55608  0.15963  1.0000
  H   H10       1.0  0.89846  0.54583  0.11066  1.0000
  H   H11       1.0  0.89702  0.57754  0.13421  1.0000
  H   H12       1.0  0.86767  0.54292  0.16518  1.0000
  C   C13       1.0  0.46331  0.32557  0.37563  1.0000
  N   N5        1.0  0.41673  0.31323  0.31693  1.0000
  C   C14       1.0  0.44613  0.33070  0.31391  1.0000
  O   O5        1.0  0.45826  0.35094  0.24692  1.0000
  C   C15       1.0  0.45994  0.33899  0.16155  1.0000
  H   H13       1.0  0.47015  0.35664  0.11302  1.0000
  H   H14       1.0  0.43845  0.32344  0.13611  1.0000
  H   H15       1.0  0.47309  0.32860  0.16627  1.0000
  C   C16       1.0  0.69039  0.14030  0.37482  1.0000
  N   N6        1.0  0.70286  0.10630  0.31490  1.0000
  C   C17       1.0  0.68541  0.11827  0.31216  1.0000
  O   O6        1.0  0.66543  0.11054  0.24452  1.0000
  C   C18       1.0  0.67771  0.12470  0.16003  1.0000
  H   H16       1.0  0.66026  0.11753  0.11089  1.0000
  H   H17       1.0  0.69340  0.11897  0.13450  1.0000
  H   H18       1.0  0.68804  0.14821  0.16613  1.0000
  N   N7        1.0  0.44946  0.12460  0.29919  1.0000
  C   C19       1.0  0.41991  0.10937  0.29415  1.0000
  C   C20       1.0  0.40374  0.11578  0.35639  1.0000
  O   O7        1.0  0.40687  0.09025  0.22480  1.0000
  C   C21       1.0  0.40601  0.10387  0.14196  1.0000
  H   H19       1.0  0.39512  0.08706  0.09115  1.0000
  H   H20       1.0  0.42777  0.11898  0.11745  1.0000
  H   H21       1.0  0.39385  0.11521  0.14988  1.0000
  N   N8        1.0  0.68799  0.56680  0.29792  1.0000
  C   C22       1.0  0.70229  0.59634  0.29283  1.0000
  C   C23       1.0  0.72471  0.61252  0.35552  1.0000
  O   O8        1.0  0.69640  0.60936  0.22298  1.0000
  C   C24       1.0  0.71110  0.61019  0.14065  1.0000
  H   H22       1.0  0.70532  0.62106  0.08939  1.0000
  H   H23       1.0  0.70451  0.58842  0.11638  1.0000
  H   H24       1.0  0.73458  0.62235  0.14917  1.0000
  N   N9        1.0  0.89092  0.32754  0.29748  1.0000
  C   C25       1.0  0.90602  0.31311  0.29203  1.0000
  C   C26       1.0  0.89996  0.29086  0.35521  1.0000
  O   O9        1.0  0.92462  0.31873  0.22144  1.0000
  C   C27       1.0  0.91036  0.30376  0.13983  1.0000
  H   H25       1.0  0.92679  0.30933  0.08789  1.0000
  H   H26       1.0  0.89512  0.31032  0.11599  1.0000
  H   H27       1.0  0.89903  0.28031  0.14911  1.0000
  N   N10       1.0  0.56991  0.88800  0.29685  1.0000
  C   C28       1.0  0.59945  0.90313  0.29139  1.0000
  C   C29       1.0  0.61566  0.89716  0.35474  1.0000
  O   O10       1.0  0.61241  0.92165  0.22061  1.0000
  C   C30       1.0  0.61309  0.90729  0.13920  1.0000
  H   H28       1.0  0.62393  0.92365  0.08708  1.0000
  H   H29       1.0  0.59128  0.89202  0.11547  1.0000
  H   H30       1.0  0.62521  0.89596  0.14868  1.0000
  N   N11       1.0  0.33104  0.44634  0.29887  1.0000
  C   C31       1.0  0.31666  0.41679  0.29372  1.0000
  C   C32       1.0  0.29415  0.40063  0.35617  1.0000
  O   O11       1.0  0.32262  0.40376  0.22407  1.0000
  C   C33       1.0  0.30800  0.40292  0.14154  1.0000
  H   H31       1.0  0.31384  0.39204  0.09045  1.0000
  H   H32       1.0  0.31462  0.42468  0.11717  1.0000
  H   H33       1.0  0.28451  0.39076  0.14983  1.0000
  N   N12       1.0  0.12775  0.68492  0.29843  1.0000
  C   C34       1.0  0.11254  0.69926  0.29336  1.0000
  C   C35       1.0  0.11890  0.72177  0.35578  1.0000
  O   O12       1.0  0.09352  0.69328  0.22376  1.0000
  C   C36       1.0  0.10727  0.70787  0.14117  1.0000
  H   H34       1.0  0.09054  0.70202  0.09014  1.0000
  H   H35       1.0  0.12242  0.70125  0.11678  1.0000
  H   H36       1.0  0.11860  0.73136  0.14941  1.0000
  N   N13       1.0  0.26328  0.54602  0.30200  1.0000
  C   C37       1.0  0.28964  0.54791  0.29372  1.0000
  C   C38       1.0  0.29568  0.52982  0.34830  1.0000
  O   O13       1.0  0.30822  0.56515  0.22794  1.0000
  C   C39       1.0  0.30150  0.55189  0.14004  1.0000
  H   H37       1.0  0.31742  0.56700  0.09227  1.0000
  H   H38       1.0  0.28009  0.54717  0.11739  1.0000
  H   H39       1.0  0.30267  0.53203  0.13928  1.0000
  N   N14       1.0  0.47031  0.72079  0.30253  1.0000
  C   C40       1.0  0.46845  0.74528  0.29411  1.0000
  C   C41       1.0  0.48666  0.76948  0.34830  1.0000
  O   O14       1.0  0.45115  0.74656  0.22843  1.0000
  C   C42       1.0  0.46433  0.75299  0.14041  1.0000
  H   H40       1.0  0.44918  0.75376  0.09269  1.0000
  H   H41       1.0  0.46901  0.73626  0.11789  1.0000
  H   H42       1.0  0.48420  0.77402  0.13936  1.0000
  N   N15       1.0  0.29533  0.75256  0.30204  1.0000
  C   C43       1.0  0.27080  0.72625  0.29353  1.0000
  C   C44       1.0  0.24666  0.72026  0.34802  1.0000
  O   O15       1.0  0.26941  0.70771  0.22752  1.0000
  C   C45       1.0  0.26296  0.71459  0.13972  1.0000
  H   H43       1.0  0.26211  0.69870  0.09174  1.0000
  H   H44       1.0  0.27973  0.73600  0.11732  1.0000
  H   H45       1.0  0.24197  0.71352  0.13897  1.0000
  N   N16       1.0  0.75578  0.46700  0.30170  1.0000
  C   C46       1.0  0.72948  0.46522  0.29325  1.0000
  C   C47       1.0  0.72352  0.48341  0.34766  1.0000
  O   O16       1.0  0.71092  0.44805  0.22733  1.0000
  C   C48       1.0  0.71777  0.46136  0.13949  1.0000
  H   H46       1.0  0.70187  0.44630  0.09155  1.0000
  H   H47       1.0  0.73917  0.46601  0.11705  1.0000
  H   H48       1.0  0.71668  0.48127  0.13871  1.0000
  N   N17       1.0  0.54931  0.29220  0.30199  1.0000
  C   C49       1.0  0.55114  0.26769  0.29363  1.0000
  C   C50       1.0  0.53304  0.24358  0.34828  1.0000
  O   O17       1.0  0.56831  0.26631  0.22771  1.0000
  C   C51       1.0  0.55500  0.25978  0.13989  1.0000
  H   H49       1.0  0.57006  0.25894  0.09202  1.0000
  H   H50       1.0  0.55031  0.27650  0.11732  1.0000
  H   H51       1.0  0.53511  0.23877  0.13922  1.0000
  N   N18       1.0  0.72372  0.25979  0.30266  1.0000
  C   C52       1.0  0.74815  0.28617  0.29427  1.0000
  C   C53       1.0  0.77237  0.29223  0.34847  1.0000
  O   O18       1.0  0.74937  0.30476  0.22870  1.0000
  C   C54       1.0  0.75582  0.29808  0.14060  1.0000
  H   H52       1.0  0.75653  0.31399  0.09299  1.0000
  H   H53       1.0  0.73913  0.27666  0.11801  1.0000
  H   H54       1.0  0.77687  0.29929  0.13947  1.0000
  C   C55       1.0  0.17980  0.61817  0.30392  1.0000
  N   N19       1.0  0.19690  0.58592  0.26509  1.0000
  C   C56       1.0  0.19966  0.61255  0.25712  1.0000
  O   O19       1.0  0.22080  0.63275  0.20208  1.0000
  C   C57       1.0  0.24966  0.63853  0.22089  1.0000
  H   H55       1.0  0.26444  0.65508  0.17409  1.0000
  H   H56       1.0  0.25163  0.61931  0.21088  1.0000
  H   H57       1.0  0.25615  0.64656  0.28968  1.0000
  C   C58       1.0  0.39788  0.56520  0.30474  1.0000
  N   N20       1.0  0.43016  0.61455  0.26593  1.0000
  C   C59       1.0  0.40350  0.59071  0.25814  1.0000
  O   O20       1.0  0.38327  0.59172  0.20339  1.0000
  C   C60       1.0  0.37744  0.61472  0.22295  1.0000
  H   H58       1.0  0.36089  0.61303  0.17631  1.0000
  H   H59       1.0  0.39664  0.63595  0.21334  1.0000
  H   H60       1.0  0.36938  0.61299  0.29180  1.0000
  C   C61       1.0  0.45110  0.83609  0.30403  1.0000
  N   N21       1.0  0.40169  0.81884  0.26565  1.0000
  C   C62       1.0  0.42558  0.81613  0.25759  1.0000
  O   O21       1.0  0.42467  0.79496  0.20271  1.0000
  C   C63       1.0  0.40154  0.76612  0.22139  1.0000
  H   H61       1.0  0.40334  0.75132  0.17476  1.0000
  H   H62       1.0  0.38037  0.76417  0.21106  1.0000
  H   H63       1.0  0.40299  0.75962  0.29027  1.0000
  C   C64       1.0  0.83897  0.39446  0.30440  1.0000
  N   N22       1.0  0.82182  0.42668  0.26581  1.0000
  C   C65       1.0  0.81902  0.40003  0.25802  1.0000
  O   O22       1.0  0.79776  0.37978  0.20341  1.0000
  C   C66       1.0  0.76894  0.37398  0.22298  1.0000
  H   H64       1.0  0.75405  0.35739  0.17646  1.0000
  H   H65       1.0  0.76691  0.39317  0.21318  1.0000
  H   H66       1.0  0.76262  0.36598  0.29188  1.0000
  C   C67       1.0  0.62140  0.44798  0.30376  1.0000
  N   N23       1.0  0.58924  0.39860  0.26512  1.0000
  C   C68       1.0  0.61583  0.42252  0.25697  1.0000
  O   O23       1.0  0.63604  0.42167  0.20172  1.0000
  C   C69       1.0  0.64175  0.39850  0.21973  1.0000
  H   H67       1.0  0.65834  0.40038  0.17288  1.0000
  H   H68       1.0  0.62252  0.37736  0.20916  1.0000
  H   H69       1.0  0.64972  0.39983  0.28852  1.0000
  C   C70       1.0  0.56827  0.17666  0.30475  1.0000
  N   N24       1.0  0.61760  0.19365  0.26593  1.0000
  C   C71       1.0  0.59378  0.19650  0.25805  1.0000
  O   O24       1.0  0.59480  0.21771  0.20317  1.0000
  C   C72       1.0  0.61779  0.24654  0.22270  1.0000
  H   H70       1.0  0.61612  0.26139  0.17596  1.0000
  H   H71       1.0  0.63903  0.24858  0.21321  1.0000
  H   H72       1.0  0.61605  0.25290  0.29150  1.0000
  N   N25       1.0  0.99354  0.29449  0.27392  1.0000
  C   C73       1.0  0.02288  0.30976  0.26778  1.0000
  C   C74       1.0  0.03953  0.30182  0.32283  1.0000
  O   O25       1.0  0.03506  0.33366  0.21340  1.0000
  C   C75       1.0  0.04073  0.32743  0.12369  1.0000
  H   H73       1.0  0.05031  0.34744  0.08483  1.0000
  H   H74       1.0  0.02081  0.31168  0.08981  1.0000
  H   H75       1.0  0.05603  0.31947  0.12434  1.0000
  N   N26       1.0  0.72322  0.70425  0.26972  1.0000
  C   C76       1.0  0.70822  0.71861  0.26319  1.0000
  C   C77       1.0  0.71474  0.74174  0.32330  1.0000
  O   O26       1.0  0.68589  0.70865  0.20277  1.0000
  C   C78       1.0  0.69467  0.72300  0.11678  1.0000
  H   H76       1.0  0.67582  0.71388  0.07261  1.0000
  H   H77       1.0  0.71122  0.71958  0.08513  1.0000
  H   H78       1.0  0.70272  0.74621  0.12308  1.0000
  N   N27       1.0  0.31413  0.02243  0.27628  1.0000
  C   C79       1.0  0.30017  0.99310  0.26980  1.0000
  C   C80       1.0  0.27510  0.97635  0.32287  1.0000
  O   O27       1.0  0.31252  0.98109  0.21743  1.0000
  C   C81       1.0  0.30157  0.97554  0.12655  1.0000
  H   H79       1.0  0.31244  0.96608  0.08947  1.0000
  H   H80       1.0  0.30603  0.99550  0.09230  1.0000
  H   H81       1.0  0.27832  0.96018  0.12501  1.0000
  N   N28       1.0  0.02548  0.71831  0.27438  1.0000
  C   C82       1.0  0.99615  0.70302  0.26788  1.0000
  C   C83       1.0  0.97941  0.71100  0.32237  1.0000
  O   O28       1.0  0.98407  0.67903  0.21385  1.0000
  C   C84       1.0  0.97854  0.68512  0.12378  1.0000
  H   H82       1.0  0.96902  0.66505  0.08524  1.0000
  H   H83       1.0  0.99851  0.70082  0.09003  1.0000
  H   H84       1.0  0.96322  0.69307  0.12373  1.0000
  N   N29       1.0  0.29876  0.31168  0.27799  1.0000
  C   C85       1.0  0.31423  0.29783  0.27172  1.0000
  C   C86       1.0  0.30542  0.27224  0.32259  1.0000
  O   O29       1.0  0.33914  0.31083  0.22196  1.0000
  C   C87       1.0  0.33477  0.30090  0.12997  1.0000
  H   H85       1.0  0.35551  0.31224  0.09515  1.0000
  H   H86       1.0  0.31961  0.30569  0.09500  1.0000
  H   H87       1.0  0.32698  0.27770  0.12615  1.0000
  N   N30       1.0  0.70883  0.99057  0.26651  1.0000
  C   C88       1.0  0.72345  0.01997  0.26065  1.0000
  C   C89       1.0  0.74508  0.03637  0.32537  1.0000
  O   O30       1.0  0.71523  0.03265  0.19581  1.0000
  C   C90       1.0  0.73165  0.03825  0.11381  1.0000
  H   H88       1.0  0.72384  0.04823  0.06570  1.0000
  H   H89       1.0  0.72878  0.01826  0.08386  1.0000
  H   H90       1.0  0.75468  0.05321  0.12524  1.0000
  N   N31       1.0  0.17430  0.30973  0.31681  1.0000
  C   C91       1.0  0.14741  0.30722  0.31497  1.0000
  C   C92       1.0  0.14157  0.32465  0.37378  1.0000
  O   O31       1.0  0.12919  0.29268  0.24506  1.0000
  C   C93       1.0  0.11269  0.26201  0.25977  1.0000
  H   H91       1.0  0.09864  0.25221  0.20150  1.0000
  H   H92       1.0  0.09907  0.25678  0.31983  1.0000
  H   H93       1.0  0.12671  0.25262  0.26593  1.0000
  N   N32       1.0  0.70396  0.86678  0.30601  1.0000
  C   C94       1.0  0.70629  0.84234  0.30345  1.0000
  C   C95       1.0  0.69144  0.82050  0.36915  1.0000
  O   O32       1.0  0.71734  0.83680  0.22772  1.0000
  C   C96       1.0  0.74837  0.85153  0.22692  1.0000
  H   H94       1.0  0.75519  0.84564  0.16489  1.0000
  H   H95       1.0  0.75678  0.84502  0.28407  1.0000
  H   H96       1.0  0.75765  0.87500  0.22744  1.0000
  N   N33       1.0  0.14805  0.84164  0.31657  1.0000
  C   C97       1.0  0.17246  0.86850  0.31463  1.0000
  C   C98       1.0  0.19572  0.87430  0.37342  1.0000
  O   O33       1.0  0.17617  0.88671  0.24466  1.0000
  C   C99       1.0  0.16203  0.90324  0.25919  1.0000
  H   H97       1.0  0.16631  0.91728  0.20087  1.0000
  H   H98       1.0  0.17041  0.91687  0.31923  1.0000
  H   H99       1.0  0.13861  0.88923  0.26531  1.0000
  N   N34       1.0  0.84458  0.70298  0.31582  1.0000
  C   C100      1.0  0.87144  0.70542  0.31376  1.0000
  C   C101      1.0  0.87731  0.68806  0.37280  1.0000
  O   O34       1.0  0.88956  0.71977  0.24345  1.0000
  C   C102      1.0  0.90605  0.75049  0.25722  1.0000
  H   H100      1.0  0.92001  0.76011  0.19867  1.0000
  H   H101      1.0  0.91975  0.75592  0.31715  1.0000
  H   H102      1.0  0.89201  0.75987  0.26305  1.0000
  N   N35       1.0  0.31235  0.14466  0.32006  1.0000
  C   C103      1.0  0.30982  0.16904  0.31841  1.0000
  C   C104      1.0  0.32800  0.19271  0.37489  1.0000
  O   O35       1.0  0.29423  0.17216  0.25071  1.0000
  C   C105      1.0  0.26386  0.15839  0.27053  1.0000
  H   H103      1.0  0.25315  0.16213  0.21374  1.0000
  H   H104      1.0  0.25977  0.16751  0.33107  1.0000
  H   H105      1.0  0.25443  0.13504  0.27882  1.0000
  N   N36       1.0  0.87024  0.17180  0.31014  1.0000
  C   C106      1.0  0.84580  0.14500  0.30779  1.0000
  C   C107      1.0  0.82343  0.13850  0.37106  1.0000
  O   O36       1.0  0.84091  0.12782  0.23393  1.0000
  C   C108      1.0  0.85549  0.11140  0.23851  1.0000
  H   H106      1.0  0.85016  0.09820  0.17765  1.0000
  H   H107      1.0  0.84836  0.09694  0.29691  1.0000
  H   H108      1.0  0.87896  0.12551  0.24089  1.0000
  C   C109      1.0  0.16371  0.48995  0.36451  1.0000
  N   N37       1.0  0.15802  0.51158  0.34354  1.0000
  C   C110      1.0  0.18008  0.53934  0.32884  1.0000
  N   N38       1.0  0.20793  0.54483  0.33460  1.0000
  C   C111      1.0  0.21428  0.52399  0.35662  1.0000
  N   N39       1.0  0.19181  0.49706  0.37008  1.0000
  C   C112      1.0  0.52631  0.67721  0.36421  1.0000
  N   N40       1.0  0.50461  0.64989  0.34340  1.0000
  C   C113      1.0  0.47685  0.64424  0.32918  1.0000
  N   N41       1.0  0.47143  0.66664  0.33513  1.0000
  C   C114      1.0  0.49234  0.69382  0.35694  1.0000
  N   N42       1.0  0.51927  0.69823  0.36997  1.0000
  C   C115      1.0  0.33889  0.85207  0.36442  1.0000
  N   N43       1.0  0.36623  0.85776  0.34367  1.0000
  C   C116      1.0  0.37193  0.83569  0.32923  1.0000
  N   N44       1.0  0.34957  0.80785  0.33499  1.0000
  C   C117      1.0  0.32238  0.80151  0.35687  1.0000
  N   N45       1.0  0.31791  0.82399  0.37012  1.0000
  C   C118      1.0  0.85532  0.52286  0.36387  1.0000
  N   N46       1.0  0.86095  0.50116  0.34325  1.0000
  C   C119      1.0  0.83884  0.47340  0.32882  1.0000
  N   N47       1.0  0.81102  0.46798  0.33460  1.0000
  C   C120      1.0  0.80474  0.48889  0.35637  1.0000
  N   N48       1.0  0.82726  0.51581  0.36957  1.0000
  C   C121      1.0  0.49333  0.33576  0.36500  1.0000
  N   N49       1.0  0.51496  0.36308  0.34397  1.0000
  C   C122      1.0  0.54270  0.36878  0.32911  1.0000
  N   N50       1.0  0.54820  0.34643  0.33477  1.0000
  C   C123      1.0  0.52737  0.31924  0.35685  1.0000
  N   N51       1.0  0.50045  0.31478  0.37045  1.0000
  C   C124      1.0  0.68022  0.16019  0.36480  1.0000
  N   N52       1.0  0.65291  0.15456  0.34390  1.0000
  C   C125      1.0  0.64726  0.17667  0.32945  1.0000
  N   N53       1.0  0.66966  0.20449  0.33527  1.0000
  C   C126      1.0  0.69684  0.21077  0.35715  1.0000
  N   N54       1.0  0.70125  0.18826  0.37043  1.0000
  C   C127      1.0  0.49466  0.16491  0.35055  1.0000
  N   N55       1.0  0.51635  0.15912  0.33108  1.0000
  C   C128      1.0  0.54415  0.18103  0.31524  1.0000
  N   N56       1.0  0.54968  0.20890  0.31998  1.0000
  C   C129      1.0  0.52875  0.21538  0.33912  1.0000
  N   N57       1.0  0.50181  0.19304  0.35377  1.0000
  C   C130      1.0  0.68309  0.52166  0.34971  1.0000
  N   N58       1.0  0.65565  0.49993  0.33010  1.0000
  C   C131      1.0  0.64985  0.47216  0.31416  1.0000
  N   N59       1.0  0.67223  0.46670  0.31915  1.0000
  C   C132      1.0  0.69960  0.48767  0.33851  1.0000
  N   N60       1.0  0.70413  0.51459  0.35314  1.0000
  C   C133      1.0  0.85101  0.33279  0.35030  1.0000
  N   N61       1.0  0.85669  0.36022  0.33063  1.0000
  C   C134      1.0  0.83470  0.36600  0.31485  1.0000
  N   N62       1.0  0.80687  0.34359  0.31992  1.0000
  C   C135      1.0  0.80051  0.31622  0.33919  1.0000
  N   N63       1.0  0.82292  0.31173  0.35373  1.0000
  C   C136      1.0  0.52481  0.84814  0.35001  1.0000
  N   N64       1.0  0.50306  0.85382  0.33025  1.0000
  C   C137      1.0  0.47530  0.83184  0.31451  1.0000
  N   N65       1.0  0.46987  0.80401  0.31967  1.0000
  C   C138      1.0  0.49086  0.79763  0.33903  1.0000
  N   N66       1.0  0.51777  0.82004  0.35355  1.0000
  C   C139      1.0  0.33606  0.49154  0.35060  1.0000
  N   N67       1.0  0.36353  0.51326  0.33110  1.0000
  C   C140      1.0  0.36940  0.54105  0.31528  1.0000
  N   N68       1.0  0.34702  0.54654  0.32004  1.0000
  C   C141      1.0  0.31962  0.52559  0.33919  1.0000
  N   N69       1.0  0.31506  0.49866  0.35383  1.0000
  C   C142      1.0  0.16800  0.67998  0.34999  1.0000
  N   N70       1.0  0.16222  0.65251  0.33034  1.0000
  C   C143      1.0  0.18413  0.64664  0.31440  1.0000
  N   N71       1.0  0.21200  0.66898  0.31940  1.0000
  C   C144      1.0  0.21847  0.69637  0.33878  1.0000
  N   N72       1.0  0.19613  0.70096  0.35342  1.0000
  C   C145      1.0  0.11833  0.33067  0.36534  1.0000
  N   N73       1.0  0.08978  0.31154  0.34654  1.0000
  C   C146      1.0  0.06992  0.32059  0.33635  1.0000
  N   N74       1.0  0.07943  0.34943  0.34569  1.0000
  C   C147      1.0  0.10727  0.36901  0.36606  1.0000
  N   N75       1.0  0.12592  0.35890  0.37503  1.0000
  C   C148      1.0  0.68531  0.79122  0.36219  1.0000
  N   N76       1.0  0.70460  0.78194  0.34458  1.0000
  C   C149      1.0  0.69570  0.75306  0.33559  1.0000
  N   N77       1.0  0.66689  0.73358  0.34463  1.0000
  C   C150      1.0  0.64719  0.74182  0.36395  1.0000
  N   N78       1.0  0.65710  0.77058  0.37205  1.0000
  C   C151      1.0  0.22500  0.89751  0.36494  1.0000
  N   N79       1.0  0.23446  0.92608  0.34629  1.0000
  C   C152      1.0  0.26339  0.94593  0.33630  1.0000
  N   N80       1.0  0.28267  0.93635  0.34568  1.0000
  C   C153      1.0  0.27438  0.90849  0.36587  1.0000
  N   N81       1.0  0.24561  0.88987  0.37472  1.0000
  C   C154      1.0  0.90055  0.68205  0.36431  1.0000
  N   N82       1.0  0.92911  0.70122  0.34573  1.0000
  C   C155      1.0  0.94901  0.69221  0.33564  1.0000
  N   N83       1.0  0.93952  0.66337  0.34493  1.0000
  C   C156      1.0  0.91167  0.64375  0.36510  1.0000
  N   N84       1.0  0.89299  0.65382  0.37401  1.0000
  C   C157      1.0  0.33396  0.22197  0.36612  1.0000
  N   N85       1.0  0.31491  0.23147  0.34687  1.0000
  C   C158      1.0  0.32403  0.26041  0.33651  1.0000
  N   N86       1.0  0.35289  0.27964  0.34627  1.0000
  C   C159      1.0  0.37242  0.27135  0.36695  1.0000
  N   N87       1.0  0.36221  0.24259  0.37597  1.0000
  C   C160      1.0  0.79419  0.11526  0.36376  1.0000
  N   N88       1.0  0.78502  0.08672  0.34642  1.0000
  C   C161      1.0  0.75617  0.06665  0.33739  1.0000
  N   N89       1.0  0.73654  0.07581  0.34607  1.0000
  C   C162      1.0  0.74468  0.10374  0.36522  1.0000
  N   N90       1.0  0.77343  0.12269  0.37335  1.0000
  C   C163      1.0  0.33579  0.11713  0.36520  1.0000
  N   N91       1.0  0.31599  0.08853  0.35027  1.0000
  C   C164      1.0  0.32435  0.06829  0.33595  1.0000
  N   N92       1.0  0.35330  0.07757  0.33611  1.0000
  C   C165      1.0  0.37361  0.10557  0.35161  1.0000
  N   N93       1.0  0.36414  0.12453  0.36615  1.0000
  C   C166      1.0  0.79404  0.68038  0.36398  1.0000
  N   N94       1.0  0.78526  0.70021  0.34971  1.0000
  C   C167      1.0  0.75667  0.69189  0.33569  1.0000
  N   N95       1.0  0.73692  0.66298  0.33564  1.0000
  C   C168      1.0  0.74463  0.64265  0.35077  1.0000
  N   N96       1.0  0.77307  0.65203  0.36497  1.0000
  C   C169      1.0  0.89882  0.22167  0.36251  1.0000
  N   N97       1.0  0.92746  0.23061  0.34806  1.0000
  C   C170      1.0  0.94761  0.25925  0.33458  1.0000
  N   N98       1.0  0.93822  0.27881  0.33510  1.0000
  C   C171      1.0  0.91015  0.27094  0.35032  1.0000
  N   N99       1.0  0.89118  0.24244  0.36424  1.0000
  C   C172      1.0  0.68358  0.89580  0.36125  1.0000
  N   N100      1.0  0.70334  0.92445  0.34792  1.0000
  C   C173      1.0  0.69491  0.94465  0.33507  1.0000
  N   N101      1.0  0.66600  0.93546  0.33532  1.0000
  C   C174      1.0  0.64576  0.90732  0.34972  1.0000
  N   N102      1.0  0.65517  0.88821  0.36298  1.0000
  C   C175      1.0  0.22493  0.33255  0.36434  1.0000
  N   N103      1.0  0.23383  0.31284  0.34932  1.0000
  C   C176      1.0  0.26246  0.32128  0.33532  1.0000
  N   N104      1.0  0.28202  0.35026  0.33580  1.0000
  C   C177      1.0  0.27425  0.37049  0.35138  1.0000
  N   N105      1.0  0.24579  0.36095  0.36572  1.0000
  C   C178      1.0  0.12016  0.79103  0.36422  1.0000
  N   N106      1.0  0.09155  0.78218  0.34943  1.0000
  C   C179      1.0  0.07134  0.75358  0.33530  1.0000
  N   N107      1.0  0.08064  0.73394  0.33558  1.0000
  C   C180      1.0  0.10866  0.74167  0.35107  1.0000
  N   N108      1.0  0.12763  0.77012  0.36542  1.0000
  N   N109      1.0  0.15134  0.44538  0.43476  1.0000
  C   C181      1.0  0.13941  0.41623  0.43896  1.0000
  C   C182      1.0  0.11763  0.39910  0.37575  1.0000
  O   O37       1.0  0.14810  0.40419  0.50495  1.0000
  C   C183      1.0  0.17797  0.41175  0.49985  1.0000
  H   H109      1.0  0.18187  0.39956  0.55153  1.0000
  H   H110      1.0  0.19226  0.43474  0.51318  1.0000
  H   H111      1.0  0.18323  0.40627  0.43417  1.0000
  N   N110      1.0  0.57096  0.70921  0.43438  1.0000
  C   C184      1.0  0.60013  0.72644  0.43812  1.0000
  C   C185      1.0  0.61716  0.72200  0.37396  1.0000
  O   O38       1.0  0.61229  0.74698  0.50460  1.0000
  C   C186      1.0  0.60504  0.76952  0.50008  1.0000
  H   H112      1.0  0.61730  0.78544  0.55211  1.0000
  H   H113      1.0  0.58207  0.76100  0.51324  1.0000
  H   H114      1.0  0.61069  0.78043  0.43467  1.0000
  N   N111      1.0  0.30669  0.86445  0.43472  1.0000
  C   C187      1.0  0.28946  0.87638  0.43886  1.0000
  C   C188      1.0  0.29410  0.89814  0.37558  1.0000
  O   O39       1.0  0.26876  0.86773  0.50490  1.0000
  C   C189      1.0  0.24643  0.83787  0.49989  1.0000
  H   H115      1.0  0.23036  0.83400  0.55159  1.0000
  H   H116      1.0  0.25512  0.82356  0.51323  1.0000
  H   H117      1.0  0.23567  0.83260  0.43423  1.0000
  N   N112      1.0  0.86781  0.56743  0.43439  1.0000
  C   C190      1.0  0.87974  0.59659  0.43847  1.0000
  C   C191      1.0  0.90137  0.61369  0.37484  1.0000
  O   O40       1.0  0.87117  0.60867  0.50466  1.0000
  C   C192      1.0  0.84130  0.60114  0.50001  1.0000
  H   H118      1.0  0.83750  0.61338  0.55174  1.0000
  H   H119      1.0  0.82701  0.57815  0.51358  1.0000
  H   H120      1.0  0.83593  0.60657  0.43442  1.0000
  N   N113      1.0  0.44879  0.30352  0.43525  1.0000
  C   C193      1.0  0.41964  0.28630  0.43954  1.0000
  C   C194      1.0  0.40250  0.29104  0.37660  1.0000
  O   O41       1.0  0.40762  0.26552  0.50535  1.0000
  C   C195      1.0  0.41529  0.24329  0.50017  1.0000
  H   H121      1.0  0.40310  0.22715  0.55169  1.0000
  H   H122      1.0  0.43828  0.25206  0.51368  1.0000
  H   H123      1.0  0.40990  0.23261  0.43440  1.0000
  N   N114      1.0  0.71223  0.14757  0.43502  1.0000
  C   C196      1.0  0.72940  0.13556  0.43899  1.0000
  C   C197      1.0  0.72484  0.11396  0.37519  1.0000
  O   O42       1.0  0.75000  0.14403  0.50529  1.0000
  C   C198      1.0  0.77243  0.17387  0.50080  1.0000
  H   H124      1.0  0.78843  0.17759  0.55261  1.0000
  H   H125      1.0  0.76381  0.18823  0.51430  1.0000
  H   H126      1.0  0.78327  0.17922  0.43527  1.0000
  C   C199      1.0  0.46469  0.14485  0.36355  1.0000
  N   N115      1.0  0.41901  0.13586  0.42046  1.0000
  C   C200      1.0  0.44830  0.15040  0.42773  1.0000
  O   O43       1.0  0.46148  0.16989  0.49670  1.0000
  C   C201      1.0  0.45254  0.19104  0.50802  1.0000
  H   H127      1.0  0.46617  0.20638  0.55962  1.0000
  H   H128      1.0  0.43011  0.18093  0.53072  1.0000
  H   H129      1.0  0.45505  0.20296  0.44553  1.0000
  C   C202      1.0  0.69287  0.55159  0.36270  1.0000
  N   N116      1.0  0.72940  0.59729  0.42000  1.0000
  C   C203      1.0  0.71467  0.56800  0.42729  1.0000
  O   O44       1.0  0.72086  0.55483  0.49656  1.0000
  C   C204      1.0  0.75094  0.56377  0.50837  1.0000
  H   H130      1.0  0.75258  0.55016  0.56020  1.0000
  H   H131      1.0  0.76325  0.58622  0.53098  1.0000
  H   H132      1.0  0.76043  0.56123  0.44611  1.0000
  C   C205      1.0  0.87114  0.32297  0.36302  1.0000
  N   N117      1.0  0.88028  0.28640  0.42030  1.0000
  C   C206      1.0  0.86587  0.30127  0.42786  1.0000
  O   O45       1.0  0.84674  0.29534  0.49768  1.0000
  C   C207      1.0  0.82561  0.26532  0.51062  1.0000
  H   H133      1.0  0.81054  0.26389  0.56278  1.0000
  H   H134      1.0  0.83580  0.25306  0.53331  1.0000
  H   H135      1.0  0.81338  0.25563  0.44882  1.0000
  C   C208      1.0  0.55476  0.86827  0.36255  1.0000
  N   N118      1.0  0.60047  0.87753  0.42001  1.0000
  C   C209      1.0  0.57119  0.86309  0.42762  1.0000
  O   O46       1.0  0.55801  0.84402  0.49756  1.0000
  C   C210      1.0  0.56685  0.82284  0.51047  1.0000
  H   H136      1.0  0.55324  0.80783  0.56278  1.0000
  H   H137      1.0  0.58932  0.83300  0.53294  1.0000
  H   H138      1.0  0.56421  0.81056  0.44873  1.0000
  C   C211      1.0  0.32616  0.46157  0.36353  1.0000
  N   N119      1.0  0.28944  0.41589  0.42049  1.0000
  C   C212      1.0  0.30425  0.44518  0.42785  1.0000
  O   O47       1.0  0.29806  0.45838  0.49704  1.0000
  C   C213      1.0  0.26798  0.44943  0.50896  1.0000
  H   H139      1.0  0.26636  0.46307  0.56070  1.0000
  H   H140      1.0  0.25570  0.42700  0.53175  1.0000
  H   H141      1.0  0.25846  0.45191  0.44670  1.0000
  C   C214      1.0  0.14792  0.68986  0.36299  1.0000
  N   N120      1.0  0.13889  0.72651  0.42007  1.0000
  C   C215      1.0  0.15341  0.71175  0.42735  1.0000
  O   O48       1.0  0.17283  0.71797  0.49650  1.0000
  C   C216      1.0  0.19398  0.74805  0.50815  1.0000
  H   H142      1.0  0.20926  0.74970  0.55989  1.0000
  H   H143      1.0  0.18386  0.76037  0.53077  1.0000
  H   H144      1.0  0.20597  0.75750  0.44580  1.0000
  C   C217      1.0  0.24260  0.52831  0.36189  1.0000
  N   N121      1.0  0.27507  0.51255  0.40853  1.0000
  C   C218      1.0  0.24945  0.51150  0.41984  1.0000
  O   O49       1.0  0.23070  0.49227  0.48176  1.0000
  C   C219      1.0  0.23436  0.50449  0.57056  1.0000
  H   H145      1.0  0.21865  0.48780  0.61527  1.0000
  H   H146      1.0  0.23038  0.52268  0.57091  1.0000
  H   H147      1.0  0.25599  0.51151  0.59709  1.0000
  C   C220      1.0  0.48810  0.71787  0.36218  1.0000
  N   N122      1.0  0.50403  0.76619  0.40825  1.0000
  C   C221      1.0  0.50508  0.74162  0.41966  1.0000
  O   O50       1.0  0.52444  0.74216  0.48120  1.0000
  C   C222      1.0  0.51242  0.73378  0.57029  1.0000
  H   H148      1.0  0.52919  0.73479  0.61467  1.0000
  H   H149      1.0  0.49421  0.71163  0.57116  1.0000
  H   H150      1.0  0.50551  0.74846  0.59688  1.0000
  C   C223      1.0  0.29835  0.77321  0.36214  1.0000
  N   N123      1.0  0.25005  0.74084  0.40847  1.0000
  C   C224      1.0  0.27467  0.76639  0.42001  1.0000
  O   O51       1.0  0.27425  0.78515  0.48203  1.0000
  C   C225      1.0  0.28274  0.78139  0.57081  1.0000
  H   H151      1.0  0.28182  0.79712  0.61560  1.0000
  H   H152      1.0  0.30489  0.78530  0.57121  1.0000
  H   H153      1.0  0.26807  0.75977  0.59723  1.0000
  C   C226      1.0  0.77646  0.48467  0.36165  1.0000
  N   N124      1.0  0.74412  0.50063  0.40800  1.0000
  C   C227      1.0  0.76968  0.50157  0.41947  1.0000
  O   O52       1.0  0.78846  0.52077  0.48140  1.0000
  C   C228      1.0  0.78472  0.50856  0.57024  1.0000
  H   H154      1.0  0.80046  0.52521  0.61496  1.0000
  H   H155      1.0  0.78860  0.49030  0.57071  1.0000
  H   H156      1.0  0.76311  0.50164  0.59670  1.0000
  C   C229      1.0  0.53167  0.29522  0.36206  1.0000
  N   N125      1.0  0.51586  0.24698  0.40870  1.0000
  C   C230      1.0  0.51488  0.27158  0.42010  1.0000
  O   O53       1.0  0.49572  0.27116  0.48223  1.0000
  C   C231      1.0  0.50803  0.27973  0.57091  1.0000
  H   H157      1.0  0.49141  0.27881  0.61579  1.0000
  H   H158      1.0  0.52625  0.30189  0.57112  1.0000
  H   H159      1.0  0.51504  0.26511  0.59736  1.0000
  C   C232      1.0  0.72086  0.23908  0.36228  1.0000
  N   N126      1.0  0.76913  0.27159  0.40842  1.0000
  C   C233      1.0  0.74462  0.24593  0.41980  1.0000
  O   O54       1.0  0.74520  0.22716  0.48145  1.0000
  C   C234      1.0  0.73679  0.23081  0.57049  1.0000
  H   H160      1.0  0.73784  0.21509  0.61498  1.0000
  H   H161      1.0  0.71462  0.22682  0.57130  1.0000
  H   H162      1.0  0.75143  0.25243  0.59699  1.0000
  N   N127      1.0  0.15892  0.59581  0.35283  1.0000
  C   C235      1.0  0.15606  0.56894  0.35924  1.0000
  C   C236      1.0  0.17634  0.56361  0.31418  1.0000
  O   O55       1.0  0.13523  0.54880  0.41465  1.0000
  C   C237      1.0  0.14360  0.55250  0.50823  1.0000
  H   H163      1.0  0.12591  0.53545  0.54685  1.0000
  H   H164      1.0  0.14751  0.57333  0.53409  1.0000
  H   H165      1.0  0.16286  0.55062  0.51879  1.0000
  N   N128      1.0  0.42028  0.56661  0.35324  1.0000
  C   C238      1.0  0.44717  0.59060  0.35948  1.0000
  C   C239      1.0  0.45251  0.61624  0.31466  1.0000
  O   O56       1.0  0.46736  0.58984  0.41448  1.0000
  C   C240      1.0  0.46381  0.59449  0.50819  1.0000
  H   H166      1.0  0.48089  0.59380  0.54647  1.0000
  H   H167      1.0  0.44300  0.57759  0.53423  1.0000
  H   H168      1.0  0.46574  0.61564  0.51901  1.0000
  N   N129      1.0  0.44962  0.85701  0.35273  1.0000
  C   C241      1.0  0.42559  0.85982  0.35924  1.0000
  C   C242      1.0  0.39995  0.83942  0.31461  1.0000
  O   O57       1.0  0.42630  0.88071  0.41440  1.0000
  C   C243      1.0  0.42174  0.87249  0.50808  1.0000
  H   H169      1.0  0.42238  0.89021  0.54649  1.0000
  H   H170      1.0  0.43870  0.86864  0.53393  1.0000
  H   H171      1.0  0.40062  0.85322  0.51898  1.0000
  N   N130      1.0  0.85999  0.41689  0.35276  1.0000
  C   C244      1.0  0.86287  0.44377  0.35903  1.0000
  C   C245      1.0  0.84250  0.44906  0.31440  1.0000
  O   O58       1.0  0.88386  0.46399  0.41386  1.0000
  C   C246      1.0  0.87573  0.46047  0.50763  1.0000
  H   H172      1.0  0.89353  0.47757  0.54578  1.0000
  H   H173      1.0  0.87186  0.43967  0.53370  1.0000
  H   H174      1.0  0.85651  0.46240  0.51861  1.0000
  N   N131      1.0  0.59905  0.44646  0.35281  1.0000
  C   C247      1.0  0.57222  0.42240  0.35937  1.0000
  C   C248      1.0  0.56695  0.39680  0.31443  1.0000
  O   O59       1.0  0.55207  0.42306  0.41486  1.0000
  C   C249      1.0  0.55583  0.41845  0.50843  1.0000
  H   H175      1.0  0.53877  0.41905  0.54711  1.0000
  H   H176      1.0  0.57665  0.43541  0.53418  1.0000
  H   H177      1.0  0.55402  0.39733  0.51906  1.0000
  N   N132      1.0  0.56966  0.15569  0.35346  1.0000
  C   C250      1.0  0.59363  0.15276  0.35979  1.0000
  C   C251      1.0  0.61927  0.17302  0.31484  1.0000
  O   O60       1.0  0.59287  0.13185  0.41503  1.0000
  C   C252      1.0  0.59753  0.14014  0.50867  1.0000
  H   H178      1.0  0.59684  0.12241  0.54714  1.0000
  H   H179      1.0  0.58064  0.14409  0.53458  1.0000
  H   H180      1.0  0.61869  0.15937  0.51936  1.0000
  C   C253      1.0  0.97811  0.27051  0.32585  1.0000
  N   N133      1.0  0.02420  0.27788  0.37537  1.0000
  C   C254      1.0  0.99461  0.26136  0.37665  1.0000
  O   O61       1.0  0.98181  0.24007  0.44022  1.0000
  C   C255      1.0  0.98178  0.21397  0.41649  1.0000
  H   H181      1.0  0.97083  0.19823  0.47019  1.0000
  H   H182      1.0  0.00378  0.21766  0.41057  1.0000
  H   H183      1.0  0.97006  0.20484  0.35350  1.0000
  C   C256      1.0  0.74569  0.71133  0.32725  1.0000
  N   N134      1.0  0.73696  0.74864  0.38198  1.0000
  C   C257      1.0  0.75332  0.73543  0.38426  1.0000
  O   O62       1.0  0.77242  0.74173  0.45377  1.0000
  C   C258      1.0  0.79909  0.76843  0.44171  1.0000
  H   H184      1.0  0.81295  0.77133  0.49948  1.0000
  H   H185      1.0  0.79549  0.78685  0.43917  1.0000
  H   H186      1.0  0.81032  0.76799  0.38058  1.0000
  C   C259      1.0  0.30511  0.03779  0.32649  1.0000
  N   N135      1.0  0.26590  0.99161  0.37337  1.0000
  C   C260      1.0  0.27891  0.02119  0.37474  1.0000
  O   O63       1.0  0.26962  0.03388  0.43615  1.0000
  C   C261      1.0  0.24402  0.03415  0.40791  1.0000
  H   H187      1.0  0.23850  0.04497  0.46014  1.0000
  H   H188      1.0  0.22575  0.01222  0.39994  1.0000
  H   H189      1.0  0.24762  0.04612  0.34485  1.0000
  C   C262      1.0  0.04085  0.74235  0.32608  1.0000
  N   N136      1.0  0.99469  0.73504  0.37458  1.0000
  C   C263      1.0  0.02427  0.75158  0.37615  1.0000
  O   O64       1.0  0.03698  0.77301  0.43931  1.0000
  C   C264      1.0  0.03715  0.79909  0.41434  1.0000
  H   H190      1.0  0.04801  0.81495  0.46780  1.0000
  H   H191      1.0  0.01519  0.79545  0.40756  1.0000
  H   H192      1.0  0.04903  0.80805  0.35148  1.0000
  C   C265      1.0  0.27384  0.30214  0.32581  1.0000
  N   N137      1.0  0.28039  0.26247  0.37049  1.0000
  C   C266      1.0  0.26376  0.27543  0.37147  1.0000
  O   O65       1.0  0.24098  0.26533  0.43010  1.0000
  C   C267      1.0  0.21548  0.24025  0.39709  1.0000
  H   H193      1.0  0.19845  0.23401  0.44736  1.0000
  H   H194      1.0  0.21916  0.22206  0.38741  1.0000
  H   H195      1.0  0.20800  0.24485  0.33385  1.0000
  C   C268      1.0  0.71443  0.97505  0.32807  1.0000
  N   N138      1.0  0.75025  0.02089  0.38848  1.0000
  C   C269      1.0  0.73688  0.99133  0.39067  1.0000
  O   O66       1.0  0.74106  0.97832  0.46413  1.0000
  C   C270      1.0  0.76788  0.97821  0.46179  1.0000
  H   H196      1.0  0.76900  0.96708  0.52209  1.0000
  H   H197      1.0  0.78640  0.00018  0.46240  1.0000
  H   H198      1.0  0.76911  0.96662  0.40270  1.0000
  C   C271      1.0  0.19571  0.32632  0.37677  1.0000
  N   N139      1.0  0.16312  0.34119  0.43293  1.0000
  C   C272      1.0  0.18891  0.34207  0.43968  1.0000
  O   O67       1.0  0.20847  0.36103  0.50056  1.0000
  C   C273      1.0  0.20683  0.34795  0.58680  1.0000
  H   H199      1.0  0.22302  0.36442  0.63098  1.0000
  H   H200      1.0  0.21154  0.33030  0.58107  1.0000
  H   H201      1.0  0.18561  0.33992  0.61796  1.0000
  C   C274      1.0  0.69006  0.87300  0.37210  1.0000
  N   N140      1.0  0.67717  0.82662  0.43385  1.0000
  C   C275      1.0  0.67661  0.85175  0.44033  1.0000
  O   O68       1.0  0.66028  0.85400  0.50754  1.0000
  C   C276      1.0  0.67685  0.86762  0.58740  1.0000
  H   H202      1.0  0.66237  0.86855  0.63743  1.0000
  H   H203      1.0  0.69408  0.88974  0.57368  1.0000
  H   H204      1.0  0.68618  0.85523  0.61613  1.0000
  C   C277      1.0  0.14318  0.82022  0.37659  1.0000
  N   N141      1.0  0.19070  0.85276  0.43261  1.0000
  C   C278      1.0  0.16574  0.82699  0.43943  1.0000
  O   O69       1.0  0.16511  0.80741  0.50033  1.0000
  C   C279      1.0  0.15366  0.80906  0.58653  1.0000
  H   H205      1.0  0.15392  0.79287  0.63073  1.0000
  H   H206      1.0  0.13131  0.80437  0.58075  1.0000
  H   H207      1.0  0.16687  0.83029  0.61770  1.0000
  C   C280      1.0  0.82322  0.68651  0.37611  1.0000
  N   N142      1.0  0.85581  0.67161  0.43218  1.0000
  C   C281      1.0  0.83003  0.67078  0.43904  1.0000
  O   O70       1.0  0.81050  0.65193  0.50021  1.0000
  C   C282      1.0  0.81214  0.66520  0.58609  1.0000
  H   H208      1.0  0.79600  0.64882  0.63057  1.0000
  H   H209      1.0  0.80739  0.68281  0.57983  1.0000
  H   H210      1.0  0.83339  0.67335  0.61725  1.0000
  C   C283      1.0  0.32972  0.14023  0.37791  1.0000
  N   N143      1.0  0.34517  0.18801  0.43221  1.0000
  C   C284      1.0  0.34614  0.16315  0.43903  1.0000
  O   O71       1.0  0.36583  0.16301  0.49784  1.0000
  C   C285      1.0  0.35382  0.15222  0.58564  1.0000
  H   H211      1.0  0.37083  0.15283  0.62796  1.0000
  H   H212      1.0  0.33612  0.12982  0.58224  1.0000
  H   H213      1.0  0.34617  0.16564  0.61745  1.0000
  C   C286      1.0  0.87599  0.19241  0.37415  1.0000
  N   N144      1.0  0.82913  0.15932  0.43382  1.0000
  C   C287      1.0  0.85421  0.18502  0.44040  1.0000
  O   O72       1.0  0.85587  0.20399  0.50538  1.0000
  C   C288      1.0  0.86858  0.20142  0.58789  1.0000
  H   H214      1.0  0.86908  0.21715  0.63583  1.0000
  H   H215      1.0  0.89079  0.20612  0.57730  1.0000
  H   H216      1.0  0.85579  0.17988  0.61751  1.0000
