data_image0
_chemical_formula_structural       C2NC2NC2NC2N2CHNCHNCHNCHNCHNCHC2NC2NC2NC2N2CHNCHC2NC2NC2NC2N2CHNCHNCHNCHC2NC2NC2NC2N2CHNCHC2NC2NC2NC2N2CHNCHNCHNCHC2NC2NC2NC2NC6H3C6H3C6H3C6H3C6H3C6H3C6H3C6H3C6H3C6H3C6H3C6H3C6H3C6H3C6H3C6H3C6H3C6H3C6H3C6H3NCHNCHC2NC2NC2NC2NC2NC2NC2NC2NC2NC2NC2NC2N2CHNCHC2NC2NC2NC2N2CHNCHC2NC2NC2NC2NC2NC2NC2NC2N2CHNCHC2NC2NC2NC2N2CHNCHC2NC2NC2NC2NC2NC2NC2NC2N2CHNCHC2NC2NC2NC2N2CHNCHNCHNCHNCHNCHC2NC2NC2NC2N2CHNCHC2NC2NC2NC2N2CHNCHNCHNCHC2NC2NC2NC2N2CHNCHC2NC2NC2NC2N2CHNCHNCHNCHC2NC2NC2NC2NC6H3C6H3C6H3C6H3C6H3C6H3C6H3C6H3C6H3C6H3C6H3C6H3C6H3C6H3C6H3C6H3C6H3C6H3C6H3C6H3NCHNCHC2NC2NC2NC2NC2NC2NC2NC2NC2NC2NC2NC2N2CHNCHC2NC2NC2NC2N2CHNCHC2NC2NC2NC2NC2NC2NC2NC2N2CHNCHC2NC2NC2NC2N2CHNCHC2NC2NC2NC2NC2NC2NC2NC2N2CHNCH
_chemical_formula_sum              "C540 N180 H180"
_cell_length_a       84.6681
_cell_length_b       44.5988
_cell_length_c       14.8817
_cell_angle_alpha    90
_cell_angle_beta     90
_cell_angle_gamma    90

_space_group_name_H-M_alt    "P 1"
_space_group_IT_number       1

loop_
  _space_group_symop_operation_xyz
  'x, y, z'

loop_
  _atom_site_type_symbol
  _atom_site_label
  _atom_site_symmetry_multiplicity
  _atom_site_fract_x
  _atom_site_fract_y
  _atom_site_fract_z
  _atom_site_occupancy
  C   C1        1.0  0.27010  0.12313  0.34379  1.0000
  C   C2        1.0  0.23760  0.13600  0.33554  1.0000
  N   N1        1.0  0.24835  0.15011  0.28205  1.0000
  C   C3        1.0  0.26411  0.14457  0.28221  1.0000
  C   C4        1.0  0.27249  0.15861  0.22237  1.0000
  N   N2        1.0  0.27984  0.17104  0.16932  1.0000
  C   C5        1.0  0.73793  0.38533  0.34343  1.0000
  C   C6        1.0  0.77044  0.37253  0.33551  1.0000
  N   N3        1.0  0.75972  0.35842  0.28184  1.0000
  C   C7        1.0  0.74395  0.36393  0.28183  1.0000
  C   C8        1.0  0.73560  0.34989  0.22186  1.0000
  N   N4        1.0  0.72828  0.33745  0.16870  1.0000
  N   N5        1.0  0.74893  0.10646  0.30079  1.0000
  C   C9        1.0  0.76457  0.11300  0.30024  1.0000
  H   H1        1.0  0.77197  0.10098  0.25980  1.0000
  N   N6        1.0  0.25880  0.40197  0.30074  1.0000
  C   C10       1.0  0.24315  0.39545  0.30040  1.0000
  H   H2        1.0  0.23575  0.40748  0.26000  1.0000
  N   N7        1.0  0.31246  0.02152  0.30064  1.0000
  C   C11       1.0  0.31319  0.49131  0.29369  1.0000
  H   H3        1.0  0.31923  0.48185  0.24147  1.0000
  N   N8        1.0  0.69545  0.48680  0.30043  1.0000
  C   C12       1.0  0.69464  0.01701  0.29377  1.0000
  H   H4        1.0  0.68865  0.02647  0.24136  1.0000
  N   N9        1.0  0.81278  0.27122  0.29936  1.0000
  C   C13       1.0  0.81361  0.24097  0.29407  1.0000
  H   H5        1.0  0.81960  0.23129  0.24204  1.0000
  N   N10       1.0  0.19511  0.23715  0.29943  1.0000
  C   C14       1.0  0.19422  0.26739  0.29431  1.0000
  H   H6        1.0  0.18821  0.27706  0.24232  1.0000
  C   C15       1.0  0.36120  0.14902  0.31853  1.0000
  C   C16       1.0  0.32918  0.13292  0.32436  1.0000
  N   N11       1.0  0.33872  0.12466  0.25520  1.0000
  C   C17       1.0  0.35412  0.13256  0.24749  1.0000
  C   C18       1.0  0.36146  0.12351  0.17565  1.0000
  N   N12       1.0  0.36795  0.11548  0.11237  1.0000
  C   C19       1.0  0.64683  0.35941  0.31763  1.0000
  C   C20       1.0  0.67887  0.37532  0.32363  1.0000
  N   N13       1.0  0.66935  0.38363  0.25435  1.0000
  C   C21       1.0  0.65394  0.37581  0.24659  1.0000
  C   C22       1.0  0.64663  0.38487  0.17469  1.0000
  N   N14       1.0  0.64015  0.39291  0.11135  1.0000
  N   N15       1.0  0.65297  0.13706  0.26941  1.0000
  C   C23       1.0  0.66823  0.12875  0.25761  1.0000
  H   H7        1.0  0.67144  0.11825  0.19939  1.0000
  N   N16       1.0  0.35469  0.37115  0.26805  1.0000
  C   C24       1.0  0.33941  0.37936  0.25656  1.0000
  H   H8        1.0  0.33613  0.38972  0.19823  1.0000
  C   C25       1.0  0.86126  0.39917  0.32073  1.0000
  C   C26       1.0  0.82924  0.38317  0.32526  1.0000
  N   N17       1.0  0.83879  0.37527  0.25576  1.0000
  C   C27       1.0  0.85420  0.38316  0.24872  1.0000
  C   C28       1.0  0.86157  0.37446  0.17661  1.0000
  N   N18       1.0  0.86810  0.36673  0.11309  1.0000
  C   C29       1.0  0.14677  0.10929  0.32009  1.0000
  C   C30       1.0  0.17883  0.12513  0.32466  1.0000
  N   N19       1.0  0.16928  0.13298  0.25506  1.0000
  C   C31       1.0  0.15386  0.12516  0.24793  1.0000
  C   C32       1.0  0.14652  0.13382  0.17571  1.0000
  N   N20       1.0  0.14001  0.14151  0.11207  1.0000
  N   N21       1.0  0.15307  0.38749  0.26707  1.0000
  C   C33       1.0  0.16837  0.37935  0.25550  1.0000
  H   H9        1.0  0.17161  0.36872  0.19755  1.0000
  N   N22       1.0  0.85455  0.12065  0.26614  1.0000
  C   C34       1.0  0.83923  0.12871  0.25501  1.0000
  H   H10       1.0  0.83590  0.13911  0.19684  1.0000
  N   N23       1.0  0.07672  0.14673  0.31786  1.0000
  C   C35       1.0  0.06634  0.17033  0.31577  1.0000
  H   H11       1.0  0.05487  0.16607  0.29935  1.0000
  N   N24       1.0  0.93134  0.36199  0.31826  1.0000
  C   C36       1.0  0.94173  0.33838  0.31590  1.0000
  H   H12       1.0  0.95319  0.34261  0.29915  1.0000
  C   C37       1.0  0.91492  0.14627  0.32463  1.0000
  C   C38       1.0  0.93587  0.19723  0.33142  1.0000
  N   N25       1.0  0.92096  0.19833  0.29812  1.0000
  C   C39       1.0  0.91062  0.17529  0.29151  1.0000
  C   C40       1.0  0.89831  0.18213  0.24333  1.0000
  N   N26       1.0  0.88757  0.18847  0.20023  1.0000
  C   C41       1.0  0.09274  0.36250  0.32620  1.0000
  C   C42       1.0  0.07186  0.31147  0.33316  1.0000
  N   N27       1.0  0.08671  0.31050  0.29895  1.0000
  C   C43       1.0  0.09702  0.33357  0.29235  1.0000
  C   C44       1.0  0.10921  0.32695  0.24288  1.0000
  N   N28       1.0  0.11985  0.32084  0.19870  1.0000
  N   N29       1.0  0.57675  0.39678  0.31708  1.0000
  C   C45       1.0  0.56637  0.42038  0.31528  1.0000
  H   H13       1.0  0.55487  0.41611  0.29945  1.0000
  N   N30       1.0  0.43133  0.11195  0.31738  1.0000
  C   C46       1.0  0.44172  0.08836  0.31533  1.0000
  H   H14       1.0  0.45320  0.09259  0.29898  1.0000
  C   C47       1.0  0.41497  0.39621  0.32585  1.0000
  C   C48       1.0  0.43589  0.44719  0.33217  1.0000
  N   N31       1.0  0.42098  0.44825  0.29900  1.0000
  C   C49       1.0  0.41063  0.42522  0.29281  1.0000
  C   C50       1.0  0.39836  0.43194  0.24415  1.0000
  N   N32       1.0  0.38764  0.43816  0.20072  1.0000
  C   C51       1.0  0.59271  0.11258  0.32722  1.0000
  C   C52       1.0  0.57184  0.06153  0.33346  1.0000
  N   N33       1.0  0.58670  0.06061  0.29939  1.0000
  C   C53       1.0  0.59700  0.08371  0.29296  1.0000
  C   C54       1.0  0.60926  0.07712  0.24408  1.0000
  N   N34       1.0  0.61998  0.07104  0.20045  1.0000
  N   N35       1.0  0.09431  0.48845  0.32905  1.0000
  C   C55       1.0  0.09282  0.01920  0.32551  1.0000
  H   H15       1.0  0.08516  0.02840  0.28032  1.0000
  N   N36       1.0  0.91355  0.02025  0.32787  1.0000
  C   C56       1.0  0.91509  0.48950  0.32479  1.0000
  H   H16       1.0  0.92275  0.48027  0.27967  1.0000
  N   N37       1.0  0.59438  0.23843  0.32922  1.0000
  C   C57       1.0  0.59291  0.26918  0.32501  1.0000
  H   H17       1.0  0.58515  0.27835  0.28029  1.0000
  N   N38       1.0  0.41349  0.27028  0.32824  1.0000
  C   C58       1.0  0.41500  0.23953  0.32438  1.0000
  H   H18       1.0  0.42274  0.23033  0.27965  1.0000
  C   C59       1.0  0.98724  0.25228  0.33003  1.0000
  C   C60       1.0  0.02070  0.25553  0.33604  1.0000
  N   N39       1.0  0.01287  0.23464  0.28633  1.0000
  C   C61       1.0  0.99690  0.23197  0.28092  1.0000
  C   C62       1.0  0.99166  0.21191  0.22497  1.0000
  N   N40       1.0  0.98705  0.19425  0.17538  1.0000
  C   C63       1.0  0.48725  0.00228  0.33025  1.0000
  C   C64       1.0  0.52071  0.00554  0.33629  1.0000
  N   N41       1.0  0.51288  0.98455  0.28694  1.0000
  C   C65       1.0  0.49691  0.98186  0.28154  1.0000
  C   C66       1.0  0.49168  0.46167  0.22602  1.0000
  N   N42       1.0  0.48709  0.94386  0.17682  1.0000
  C   C67       1.0  0.30290  0.06734  0.35880  1.0000
  C   C68       1.0  0.31635  0.08535  0.34678  1.0000
  C   C69       1.0  0.31499  0.11672  0.33687  1.0000
  C   C70       1.0  0.29978  0.13001  0.33883  1.0000
  C   C71       1.0  0.28595  0.11210  0.34686  1.0000
  C   C72       1.0  0.28789  0.08079  0.35585  1.0000
  H   H19       1.0  0.29881  0.15276  0.33303  1.0000
  H   H20       1.0  0.27815  0.06718  0.35722  1.0000
  H   H21       1.0  0.32727  0.07543  0.34699  1.0000
  C   C73       1.0  0.70507  0.44100  0.35837  1.0000
  C   C74       1.0  0.69165  0.42295  0.34619  1.0000
  C   C75       1.0  0.69304  0.39159  0.33611  1.0000
  C   C76       1.0  0.70826  0.37835  0.33819  1.0000
  C   C77       1.0  0.72207  0.39631  0.34637  1.0000
  C   C78       1.0  0.72009  0.42761  0.35547  1.0000
  H   H22       1.0  0.70925  0.35561  0.33230  1.0000
  H   H23       1.0  0.72982  0.44125  0.35700  1.0000
  H   H24       1.0  0.68071  0.43283  0.34641  1.0000
  C   C79       1.0  0.70493  0.06564  0.34759  1.0000
  C   C80       1.0  0.69156  0.08397  0.33699  1.0000
  C   C81       1.0  0.69307  0.11544  0.33298  1.0000
  C   C82       1.0  0.70828  0.12851  0.33904  1.0000
  C   C83       1.0  0.72199  0.11031  0.34669  1.0000
  C   C84       1.0  0.71998  0.07893  0.35224  1.0000
  H   H25       1.0  0.70937  0.15129  0.33451  1.0000
  H   H26       1.0  0.72967  0.06537  0.35958  1.0000
  H   H27       1.0  0.68058  0.07431  0.33619  1.0000
  C   C85       1.0  0.30286  0.44270  0.34735  1.0000
  C   C86       1.0  0.31620  0.42433  0.33667  1.0000
  C   C87       1.0  0.31467  0.39287  0.33254  1.0000
  C   C88       1.0  0.29945  0.37984  0.33855  1.0000
  C   C89       1.0  0.28576  0.39808  0.34638  1.0000
  C   C90       1.0  0.28779  0.42945  0.35201  1.0000
  H   H28       1.0  0.29835  0.35707  0.33401  1.0000
  H   H29       1.0  0.27812  0.44304  0.35943  1.0000
  H   H30       1.0  0.32720  0.43395  0.33586  1.0000
  C   C91       1.0  0.80304  0.31720  0.35499  1.0000
  C   C92       1.0  0.81649  0.33541  0.34587  1.0000
  C   C93       1.0  0.81507  0.36681  0.33630  1.0000
  C   C94       1.0  0.79981  0.37993  0.33583  1.0000
  C   C95       1.0  0.78612  0.36159  0.33929  1.0000
  C   C96       1.0  0.78799  0.33034  0.34868  1.0000
  H   H31       1.0  0.79867  0.40261  0.32782  1.0000
  H   H32       1.0  0.77821  0.31683  0.35152  1.0000
  H   H33       1.0  0.82745  0.32565  0.34819  1.0000
  C   C97       1.0  0.20494  0.19119  0.35481  1.0000
  C   C98       1.0  0.19151  0.17293  0.34555  1.0000
  C   C99       1.0  0.19297  0.14154  0.33584  1.0000
  C   C100      1.0  0.20824  0.12848  0.33540  1.0000
  C   C101      1.0  0.22191  0.14687  0.33915  1.0000
  C   C102      1.0  0.22001  0.17811  0.34856  1.0000
  H   H34       1.0  0.20941  0.10581  0.32744  1.0000
  H   H35       1.0  0.22977  0.19166  0.35153  1.0000
  H   H36       1.0  0.18054  0.18264  0.34782  1.0000
  C   C103      1.0  0.20462  0.31581  0.34958  1.0000
  C   C104      1.0  0.19141  0.33436  0.33675  1.0000
  C   C105      1.0  0.19309  0.36579  0.33200  1.0000
  C   C106      1.0  0.20836  0.37860  0.33932  1.0000
  C   C107      1.0  0.22194  0.36022  0.35026  1.0000
  C   C108      1.0  0.21971  0.32889  0.35632  1.0000
  H   H37       1.0  0.20953  0.40141  0.33716  1.0000
  H   H38       1.0  0.22930  0.31503  0.36208  1.0000
  H   H39       1.0  0.18038  0.32489  0.33469  1.0000
  C   C109      1.0  0.80315  0.19258  0.34923  1.0000
  C   C110      1.0  0.81635  0.17399  0.33657  1.0000
  C   C111      1.0  0.81464  0.14257  0.33184  1.0000
  C   C112      1.0  0.79936  0.12981  0.33909  1.0000
  C   C113      1.0  0.78580  0.14823  0.34991  1.0000
  C   C114      1.0  0.78805  0.17956  0.35587  1.0000
  H   H40       1.0  0.79818  0.10700  0.33706  1.0000
  H   H41       1.0  0.77847  0.19345  0.36167  1.0000
  H   H42       1.0  0.82739  0.18342  0.33460  1.0000
  C   C115      1.0  0.13024  0.10360  0.32831  1.0000
  C   C116      1.0  0.11907  0.12673  0.31896  1.0000
  C   C117      1.0  0.10259  0.12277  0.33229  1.0000
  C   C118      1.0  0.09737  0.09226  0.33956  1.0000
  C   C119      1.0  0.10820  0.06805  0.35352  1.0000
  C   C120      1.0  0.12460  0.07507  0.35150  1.0000
  H   H43       1.0  0.08557  0.08798  0.34590  1.0000
  H   H44       1.0  0.13284  0.05837  0.35716  1.0000
  H   H45       1.0  0.12332  0.14712  0.30006  1.0000
  C   C121      1.0  0.87779  0.40496  0.32891  1.0000
  C   C122      1.0  0.88898  0.38187  0.31981  1.0000
  C   C123      1.0  0.90546  0.38592  0.33299  1.0000
  C   C124      1.0  0.91065  0.41646  0.33970  1.0000
  C   C125      1.0  0.89979  0.44062  0.35366  1.0000
  C   C126      1.0  0.88340  0.43353  0.35181  1.0000
  H   H46       1.0  0.92244  0.42079  0.34624  1.0000
  H   H47       1.0  0.87514  0.45021  0.35737  1.0000
  H   H48       1.0  0.88476  0.36143  0.30117  1.0000
  C   C127      1.0  0.87682  0.10272  0.34690  1.0000
  C   C128      1.0  0.88793  0.12586  0.33802  1.0000
  C   C129      1.0  0.90452  0.12090  0.33407  1.0000
  C   C130      1.0  0.90953  0.09037  0.34643  1.0000
  C   C131      1.0  0.89872  0.06627  0.36289  1.0000
  C   C132      1.0  0.88239  0.07344  0.35808  1.0000
  H   H49       1.0  0.92134  0.08571  0.34718  1.0000
  H   H50       1.0  0.87408  0.05678  0.35896  1.0000
  H   H51       1.0  0.88347  0.14702  0.34122  1.0000
  C   C133      1.0  0.13092  0.40582  0.34815  1.0000
  C   C134      1.0  0.11976  0.38276  0.33926  1.0000
  C   C135      1.0  0.10318  0.38782  0.33555  1.0000
  C   C136      1.0  0.09822  0.41836  0.34819  1.0000
  C   C137      1.0  0.10908  0.44240  0.36439  1.0000
  C   C138      1.0  0.12540  0.43514  0.35947  1.0000
  H   H52       1.0  0.08642  0.42309  0.34901  1.0000
  H   H53       1.0  0.13374  0.45175  0.36019  1.0000
  H   H54       1.0  0.12418  0.36157  0.34219  1.0000
  C   C139      1.0  0.63029  0.35367  0.32568  1.0000
  C   C140      1.0  0.61911  0.37680  0.31681  1.0000
  C   C141      1.0  0.60264  0.37283  0.33065  1.0000
  C   C142      1.0  0.59743  0.34232  0.33811  1.0000
  C   C143      1.0  0.60827  0.31813  0.35182  1.0000
  C   C144      1.0  0.62466  0.32515  0.34903  1.0000
  H   H55       1.0  0.58563  0.33808  0.34511  1.0000
  H   H56       1.0  0.63292  0.30845  0.35456  1.0000
  H   H57       1.0  0.62333  0.39721  0.29804  1.0000
  C   C145      1.0  0.37773  0.15487  0.32654  1.0000
  C   C146      1.0  0.38894  0.13180  0.31778  1.0000
  C   C147      1.0  0.40542  0.13586  0.33138  1.0000
  C   C148      1.0  0.41058  0.16639  0.33855  1.0000
  C   C149      1.0  0.39971  0.19055  0.35207  1.0000
  C   C150      1.0  0.38332  0.18345  0.34957  1.0000
  H   H58       1.0  0.42237  0.17074  0.34520  1.0000
  H   H59       1.0  0.37505  0.20011  0.35500  1.0000
  H   H60       1.0  0.38475  0.11135  0.29917  1.0000
  C   C151      1.0  0.37684  0.35292  0.34912  1.0000
  C   C152      1.0  0.38799  0.37597  0.34025  1.0000
  C   C153      1.0  0.40455  0.37089  0.33566  1.0000
  C   C154      1.0  0.40952  0.34032  0.34766  1.0000
  C   C155      1.0  0.39867  0.31627  0.36412  1.0000
  C   C156      1.0  0.38235  0.32357  0.35964  1.0000
  H   H61       1.0  0.42132  0.33556  0.34780  1.0000
  H   H62       1.0  0.37400  0.30698  0.36015  1.0000
  H   H63       1.0  0.38358  0.39717  0.34372  1.0000
  C   C157      1.0  0.63092  0.15561  0.35068  1.0000
  C   C158      1.0  0.61972  0.13263  0.34193  1.0000
  C   C159      1.0  0.60317  0.13784  0.33723  1.0000
  C   C160      1.0  0.59826  0.16844  0.34926  1.0000
  C   C161      1.0  0.60916  0.19242  0.36546  1.0000
  C   C162      1.0  0.62546  0.18501  0.36100  1.0000
  H   H64       1.0  0.58646  0.17327  0.34931  1.0000
  H   H65       1.0  0.63384  0.20154  0.36136  1.0000
  H   H66       1.0  0.62408  0.11140  0.34529  1.0000
  C   C163      1.0  0.06298  0.22754  0.32965  1.0000
  C   C164      1.0  0.07083  0.25583  0.33088  1.0000
  C   C165      1.0  0.06302  0.28408  0.33563  1.0000
  C   C166      1.0  0.04631  0.28314  0.34169  1.0000
  C   C167      1.0  0.03766  0.25588  0.33629  1.0000
  C   C168      1.0  0.04625  0.22861  0.32876  1.0000
  H   H67       1.0  0.04022  0.30288  0.34272  1.0000
  H   H68       1.0  0.04009  0.20893  0.32826  1.0000
  H   H69       1.0  0.08289  0.25587  0.32914  1.0000
  C   C169      1.0  0.94502  0.28111  0.32877  1.0000
  C   C170      1.0  0.93707  0.25291  0.32931  1.0000
  C   C171      1.0  0.94477  0.22455  0.33346  1.0000
  C   C172      1.0  0.96147  0.22532  0.33850  1.0000
  C   C173      1.0  0.97024  0.25239  0.33139  1.0000
  C   C174      1.0  0.96176  0.27985  0.32707  1.0000
  H   H70       1.0  0.96748  0.20556  0.34364  1.0000
  H   H71       1.0  0.96802  0.29940  0.32475  1.0000
  H   H72       1.0  0.92501  0.25299  0.32799  1.0000
  C   C175      1.0  0.56300  0.47759  0.32954  1.0000
  C   C176      1.0  0.57084  0.00588  0.33088  1.0000
  C   C177      1.0  0.56302  0.03413  0.33589  1.0000
  C   C178      1.0  0.54632  0.03316  0.34212  1.0000
  C   C179      1.0  0.53767  0.50590  0.33653  1.0000
  C   C180      1.0  0.54627  0.47865  0.32885  1.0000
  H   H73       1.0  0.54022  0.05290  0.34299  1.0000
  H   H74       1.0  0.54012  0.45896  0.32821  1.0000
  H   H75       1.0  0.58290  0.00595  0.32901  1.0000
  C   C181      1.0  0.44502  0.03108  0.32854  1.0000
  C   C182      1.0  0.43708  0.50287  0.32934  1.0000
  C   C183      1.0  0.44479  0.47452  0.33387  1.0000
  C   C184      1.0  0.46149  0.47532  0.33893  1.0000
  C   C185      1.0  0.47025  0.00238  0.33158  1.0000
  C   C186      1.0  0.46176  0.02983  0.32698  1.0000
  H   H76       1.0  0.46749  0.45557  0.34444  1.0000
  H   H77       1.0  0.46802  0.04938  0.32439  1.0000
  H   H78       1.0  0.42502  0.50294  0.32800  1.0000
  N   N43       1.0  0.25921  0.10935  0.39766  1.0000
  C   C187      1.0  0.24345  0.11467  0.39663  1.0000
  H   H79       1.0  0.23627  0.10408  0.44173  1.0000
  N   N44       1.0  0.74879  0.39910  0.39749  1.0000
  C   C188      1.0  0.76455  0.39380  0.39664  1.0000
  H   H80       1.0  0.77171  0.40437  0.44190  1.0000
  C   C189      1.0  0.73775  0.12162  0.34886  1.0000
  C   C190      1.0  0.77000  0.13721  0.35265  1.0000
  N   N45       1.0  0.75884  0.15227  0.40100  1.0000
  C   C191      1.0  0.74319  0.14579  0.40230  1.0000
  C   C192      1.0  0.73440  0.16153  0.45614  1.0000
  N   N46       1.0  0.72665  0.17544  0.50381  1.0000
  C   C193      1.0  0.26999  0.38679  0.34867  1.0000
  C   C194      1.0  0.23773  0.37128  0.35294  1.0000
  N   N47       1.0  0.24891  0.35621  0.40118  1.0000
  C   C195      1.0  0.26456  0.36266  0.40227  1.0000
  C   C196      1.0  0.27336  0.34692  0.45606  1.0000
  N   N48       1.0  0.28111  0.33300  0.50368  1.0000
  C   C197      1.0  0.30416  0.03594  0.36589  1.0000
  C   C198      1.0  0.30437  0.47392  0.35478  1.0000
  N   N49       1.0  0.29622  0.48825  0.42052  1.0000
  C   C199      1.0  0.29587  0.01836  0.42982  1.0000
  C   C200      1.0  0.28789  0.02894  0.49750  1.0000
  N   N50       1.0  0.28086  0.03835  0.55713  1.0000
  C   C201      1.0  0.70376  0.47239  0.36561  1.0000
  C   C202      1.0  0.70345  0.03441  0.35492  1.0000
  N   N51       1.0  0.71161  0.02009  0.42060  1.0000
  C   C203      1.0  0.71201  0.48997  0.42974  1.0000
  C   C204      1.0  0.71999  0.47939  0.49739  1.0000
  N   N52       1.0  0.72703  0.46997  0.55701  1.0000
  C   C205      1.0  0.80441  0.28590  0.36376  1.0000
  C   C206      1.0  0.80478  0.22384  0.35578  1.0000
  N   N53       1.0  0.79655  0.23849  0.42060  1.0000
  C   C207      1.0  0.79613  0.26864  0.42847  1.0000
  C   C208      1.0  0.78804  0.27957  0.49519  1.0000
  N   N54       1.0  0.78091  0.28927  0.55401  1.0000
  C   C209      1.0  0.20352  0.22248  0.36371  1.0000
  C   C210      1.0  0.20304  0.28455  0.35604  1.0000
  N   N55       1.0  0.21130  0.26991  0.42078  1.0000
  C   C211      1.0  0.21177  0.23975  0.42849  1.0000
  C   C212      1.0  0.21989  0.22885  0.49516  1.0000
  N   N56       1.0  0.22704  0.21916  0.55390  1.0000
  N   N57       1.0  0.35160  0.15723  0.38795  1.0000
  C   C213      1.0  0.33596  0.15048  0.39306  1.0000
  H   H81       1.0  0.32982  0.15567  0.45006  1.0000
  N   N58       1.0  0.65640  0.35121  0.38722  1.0000
  C   C214      1.0  0.67205  0.35788  0.39242  1.0000
  H   H82       1.0  0.67816  0.35273  0.44955  1.0000
  C   C215      1.0  0.64734  0.14928  0.34678  1.0000
  C   C216      1.0  0.67897  0.13227  0.32942  1.0000
  N   N59       1.0  0.67323  0.14347  0.40782  1.0000
  C   C217      1.0  0.65813  0.15313  0.41883  1.0000
  C   C218      1.0  0.65403  0.16134  0.49928  1.0000
  N   N60       1.0  0.65055  0.16782  0.57125  1.0000
  C   C219      1.0  0.36041  0.35915  0.34552  1.0000
  C   C220      1.0  0.32875  0.37600  0.32882  1.0000
  N   N61       1.0  0.33458  0.36502  0.40730  1.0000
  C   C221      1.0  0.34970  0.35542  0.41799  1.0000
  C   C222      1.0  0.35388  0.34748  0.49855  1.0000
  N   N62       1.0  0.35745  0.34124  0.57057  1.0000
  N   N63       1.0  0.85166  0.40693  0.39061  1.0000
  C   C223      1.0  0.83602  0.40012  0.39526  1.0000
  H   H83       1.0  0.82984  0.40500  0.45236  1.0000
  N   N64       1.0  0.15634  0.10160  0.39014  1.0000
  C   C224      1.0  0.17200  0.10826  0.39471  1.0000
  H   H84       1.0  0.17812  0.10361  0.45217  1.0000
  C   C225      1.0  0.14736  0.39965  0.34434  1.0000
  C   C226      1.0  0.17907  0.38283  0.32756  1.0000
  N   N65       1.0  0.17321  0.39393  0.40581  1.0000
  C   C227      1.0  0.15811  0.40359  0.41654  1.0000
  C   C228      1.0  0.15395  0.41147  0.49719  1.0000
  N   N66       1.0  0.15045  0.41763  0.56937  1.0000
  C   C229      1.0  0.86037  0.10880  0.34356  1.0000
  C   C230      1.0  0.82865  0.12549  0.32779  1.0000
  N   N67       1.0  0.83461  0.11471  0.40615  1.0000
  C   C231      1.0  0.84975  0.10518  0.41650  1.0000
  C   C232      1.0  0.85403  0.09747  0.49707  1.0000
  N   N68       1.0  0.85766  0.09146  0.56916  1.0000
  C   C233      1.0  0.09255  0.14879  0.33586  1.0000
  C   C234      1.0  0.07178  0.20006  0.33050  1.0000
  N   N69       1.0  0.08726  0.20150  0.35340  1.0000
  C   C235      1.0  0.09763  0.17850  0.35815  1.0000
  C   C236      1.0  0.11082  0.18635  0.39644  1.0000
  N   N70       1.0  0.12235  0.19357  0.43084  1.0000
  C   C237      1.0  0.91553  0.35994  0.33665  1.0000
  C   C238      1.0  0.93628  0.30864  0.33045  1.0000
  N   N71       1.0  0.92082  0.30723  0.35398  1.0000
  C   C239      1.0  0.91047  0.33024  0.35924  1.0000
  C   C240      1.0  0.89732  0.32240  0.39796  1.0000
  N   N72       1.0  0.88582  0.31518  0.43271  1.0000
  N   N73       1.0  0.93028  0.14453  0.35305  1.0000
  C   C241      1.0  0.94082  0.16787  0.35528  1.0000
  H   H85       1.0  0.95184  0.16399  0.38034  1.0000
  N   N74       1.0  0.07743  0.36413  0.35554  1.0000
  C   C242      1.0  0.06692  0.34075  0.35791  1.0000
  H   H86       1.0  0.05594  0.34449  0.38379  1.0000
  C   C243      1.0  0.59260  0.39885  0.33450  1.0000
  C   C244      1.0  0.57181  0.45012  0.32994  1.0000
  N   N75       1.0  0.58732  0.45156  0.35224  1.0000
  C   C245      1.0  0.59772  0.42858  0.35632  1.0000
  C   C246      1.0  0.61089  0.43640  0.39483  1.0000
  N   N76       1.0  0.62241  0.44359  0.42938  1.0000
  C   C247      1.0  0.41549  0.10988  0.33522  1.0000
  C   C248      1.0  0.43627  0.05861  0.32979  1.0000
  N   N77       1.0  0.42078  0.05720  0.35273  1.0000
  C   C249      1.0  0.41040  0.08017  0.35734  1.0000
  C   C250      1.0  0.39727  0.07234  0.39629  1.0000
  N   N78       1.0  0.38578  0.06515  0.43121  1.0000
  N   N79       1.0  0.43034  0.39450  0.35414  1.0000
  C   C251      1.0  0.44088  0.41784  0.35603  1.0000
  H   H87       1.0  0.45188  0.41401  0.38128  1.0000
  N   N80       1.0  0.57739  0.11418  0.35646  1.0000
  C   C252      1.0  0.56687  0.09079  0.35835  1.0000
  H   H88       1.0  0.55592  0.09447  0.38455  1.0000
  C   C253      1.0  0.10527  0.47333  0.37973  1.0000
  C   C254      1.0  0.10439  0.03724  0.36832  1.0000
  N   N81       1.0  0.11413  0.02198  0.42445  1.0000
  C   C255      1.0  0.11470  0.49205  0.43580  1.0000
  C   C256      1.0  0.12408  0.48329  0.49998  1.0000
  N   N82       1.0  0.13231  0.47631  0.55755  1.0000
  C   C257      1.0  0.90257  0.03537  0.37835  1.0000
  C   C258      1.0  0.90358  0.47146  0.36810  1.0000
  N   N83       1.0  0.89382  0.48676  0.42408  1.0000
  C   C259      1.0  0.89320  0.01671  0.43495  1.0000
  C   C260      1.0  0.88384  0.02552  0.49912  1.0000
  N   N84       1.0  0.87562  0.03256  0.55668  1.0000
  C   C261      1.0  0.60542  0.22345  0.37970  1.0000
  C   C262      1.0  0.60447  0.28735  0.36730  1.0000
  N   N85       1.0  0.61428  0.27220  0.42337  1.0000
  C   C263      1.0  0.61489  0.24230  0.43523  1.0000
  C   C264      1.0  0.62430  0.23372  0.49945  1.0000
  N   N86       1.0  0.63257  0.22687  0.55699  1.0000
  C   C265      1.0  0.40246  0.28529  0.37874  1.0000
  C   C266      1.0  0.40347  0.22137  0.36709  1.0000
  N   N87       1.0  0.39366  0.23656  0.42308  1.0000
  C   C267      1.0  0.39303  0.26648  0.43456  1.0000
  C   C268      1.0  0.38364  0.27512  0.49882  1.0000
  N   N88       1.0  0.37539  0.28204  0.55638  1.0000
  N   N89       1.0  0.99509  0.27344  0.37893  1.0000
  C   C269      1.0  0.01108  0.27599  0.38371  1.0000
  H   H89       1.0  0.01583  0.29228  0.42357  1.0000
  N   N90       1.0  0.49509  0.02353  0.37879  1.0000
  C   C270      1.0  0.51108  0.02610  0.38354  1.0000
  H   H90       1.0  0.51583  0.04244  0.42323  1.0000
  C   C271      1.0  0.27010  0.62313  0.34379  1.0000
  C   C272      1.0  0.23760  0.63600  0.33554  1.0000
  N   N91       1.0  0.24835  0.65011  0.28205  1.0000
  C   C273      1.0  0.26411  0.64457  0.28221  1.0000
  C   C274      1.0  0.27249  0.65861  0.22237  1.0000
  N   N92       1.0  0.27984  0.67104  0.16932  1.0000
  C   C275      1.0  0.73793  0.88533  0.34343  1.0000
  C   C276      1.0  0.77044  0.87253  0.33551  1.0000
  N   N93       1.0  0.75972  0.85842  0.28184  1.0000
  C   C277      1.0  0.74395  0.86393  0.28183  1.0000
  C   C278      1.0  0.73560  0.84989  0.22186  1.0000
  N   N94       1.0  0.72828  0.83745  0.16870  1.0000
  N   N95       1.0  0.74893  0.60646  0.30079  1.0000
  C   C279      1.0  0.76457  0.61300  0.30024  1.0000
  H   H91       1.0  0.77197  0.60098  0.25980  1.0000
  N   N96       1.0  0.25880  0.90197  0.30074  1.0000
  C   C280      1.0  0.24315  0.89546  0.30040  1.0000
  H   H92       1.0  0.23575  0.90748  0.26000  1.0000
  N   N97       1.0  0.31246  0.52153  0.30064  1.0000
  C   C281      1.0  0.31319  0.99131  0.29369  1.0000
  H   H93       1.0  0.31923  0.98185  0.24147  1.0000
  N   N98       1.0  0.69545  0.98680  0.30043  1.0000
  C   C282      1.0  0.69464  0.51701  0.29377  1.0000
  H   H94       1.0  0.68865  0.52647  0.24136  1.0000
  N   N99       1.0  0.81278  0.77121  0.29936  1.0000
  C   C283      1.0  0.81361  0.74097  0.29407  1.0000
  H   H95       1.0  0.81960  0.73129  0.24204  1.0000
  N   N100      1.0  0.19511  0.73715  0.29943  1.0000
  C   C284      1.0  0.19422  0.76739  0.29431  1.0000
  H   H96       1.0  0.18821  0.77706  0.24232  1.0000
  C   C285      1.0  0.36120  0.64902  0.31853  1.0000
  C   C286      1.0  0.32918  0.63292  0.32436  1.0000
  N   N101      1.0  0.33872  0.62466  0.25520  1.0000
  C   C287      1.0  0.35412  0.63256  0.24749  1.0000
  C   C288      1.0  0.36146  0.62351  0.17565  1.0000
  N   N102      1.0  0.36795  0.61548  0.11237  1.0000
  C   C289      1.0  0.64683  0.85941  0.31763  1.0000
  C   C290      1.0  0.67887  0.87532  0.32363  1.0000
  N   N103      1.0  0.66935  0.88363  0.25435  1.0000
  C   C291      1.0  0.65394  0.87581  0.24659  1.0000
  C   C292      1.0  0.64663  0.88487  0.17469  1.0000
  N   N104      1.0  0.64015  0.89291  0.11135  1.0000
  N   N105      1.0  0.65297  0.63706  0.26941  1.0000
  C   C293      1.0  0.66823  0.62875  0.25761  1.0000
  H   H97       1.0  0.67144  0.61825  0.19939  1.0000
  N   N106      1.0  0.35469  0.87115  0.26805  1.0000
  C   C294      1.0  0.33941  0.87937  0.25656  1.0000
  H   H98       1.0  0.33613  0.88972  0.19823  1.0000
  C   C295      1.0  0.86126  0.89917  0.32073  1.0000
  C   C296      1.0  0.82924  0.88317  0.32526  1.0000
  N   N107      1.0  0.83879  0.87527  0.25576  1.0000
  C   C297      1.0  0.85420  0.88316  0.24872  1.0000
  C   C298      1.0  0.86157  0.87446  0.17661  1.0000
  N   N108      1.0  0.86810  0.86673  0.11309  1.0000
  C   C299      1.0  0.14677  0.60929  0.32009  1.0000
  C   C300      1.0  0.17883  0.62513  0.32466  1.0000
  N   N109      1.0  0.16928  0.63298  0.25506  1.0000
  C   C301      1.0  0.15386  0.62516  0.24793  1.0000
  C   C302      1.0  0.14652  0.63382  0.17571  1.0000
  N   N110      1.0  0.14001  0.64151  0.11207  1.0000
  N   N111      1.0  0.15307  0.88749  0.26707  1.0000
  C   C303      1.0  0.16837  0.87936  0.25550  1.0000
  H   H99       1.0  0.17161  0.86872  0.19755  1.0000
  N   N112      1.0  0.85455  0.62065  0.26614  1.0000
  C   C304      1.0  0.83923  0.62871  0.25501  1.0000
  H   H100      1.0  0.83590  0.63911  0.19684  1.0000
  N   N113      1.0  0.07672  0.64673  0.31786  1.0000
  C   C305      1.0  0.06634  0.67032  0.31577  1.0000
  H   H101      1.0  0.05487  0.66607  0.29935  1.0000
  N   N114      1.0  0.93134  0.86199  0.31826  1.0000
  C   C306      1.0  0.94173  0.83838  0.31590  1.0000
  H   H102      1.0  0.95319  0.84261  0.29915  1.0000
  C   C307      1.0  0.91492  0.64627  0.32463  1.0000
  C   C308      1.0  0.93587  0.69723  0.33142  1.0000
  N   N115      1.0  0.92096  0.69833  0.29812  1.0000
  C   C309      1.0  0.91062  0.67529  0.29151  1.0000
  C   C310      1.0  0.89831  0.68213  0.24333  1.0000
  N   N116      1.0  0.88757  0.68847  0.20023  1.0000
  C   C311      1.0  0.09274  0.86250  0.32620  1.0000
  C   C312      1.0  0.07186  0.81146  0.33316  1.0000
  N   N117      1.0  0.08671  0.81050  0.29895  1.0000
  C   C313      1.0  0.09702  0.83357  0.29235  1.0000
  C   C314      1.0  0.10921  0.82695  0.24288  1.0000
  N   N118      1.0  0.11985  0.82084  0.19870  1.0000
  N   N119      1.0  0.57675  0.89678  0.31708  1.0000
  C   C315      1.0  0.56637  0.92038  0.31528  1.0000
  H   H103      1.0  0.55487  0.91611  0.29945  1.0000
  N   N120      1.0  0.43133  0.61196  0.31738  1.0000
  C   C316      1.0  0.44172  0.58836  0.31533  1.0000
  H   H104      1.0  0.45320  0.59259  0.29898  1.0000
  C   C317      1.0  0.41497  0.89622  0.32585  1.0000
  C   C318      1.0  0.43589  0.94719  0.33217  1.0000
  N   N121      1.0  0.42098  0.94825  0.29900  1.0000
  C   C319      1.0  0.41063  0.92522  0.29281  1.0000
  C   C320      1.0  0.39836  0.93194  0.24415  1.0000
  N   N122      1.0  0.38764  0.93816  0.20072  1.0000
  C   C321      1.0  0.59271  0.61258  0.32722  1.0000
  C   C322      1.0  0.57184  0.56154  0.33346  1.0000
  N   N123      1.0  0.58670  0.56061  0.29939  1.0000
  C   C323      1.0  0.59700  0.58371  0.29296  1.0000
  C   C324      1.0  0.60926  0.57712  0.24408  1.0000
  N   N124      1.0  0.61998  0.57104  0.20045  1.0000
  N   N125      1.0  0.09431  0.98845  0.32905  1.0000
  C   C325      1.0  0.09282  0.51920  0.32551  1.0000
  H   H105      1.0  0.08516  0.52839  0.28032  1.0000
  N   N126      1.0  0.91355  0.52025  0.32787  1.0000
  C   C326      1.0  0.91509  0.98949  0.32479  1.0000
  H   H106      1.0  0.92275  0.98027  0.27967  1.0000
  N   N127      1.0  0.59438  0.73843  0.32922  1.0000
  C   C327      1.0  0.59291  0.76918  0.32501  1.0000
  H   H107      1.0  0.58515  0.77835  0.28029  1.0000
  N   N128      1.0  0.41349  0.77028  0.32824  1.0000
  C   C328      1.0  0.41500  0.73953  0.32438  1.0000
  H   H108      1.0  0.42274  0.73033  0.27965  1.0000
  C   C329      1.0  0.98724  0.75229  0.33003  1.0000
  C   C330      1.0  0.02070  0.75552  0.33604  1.0000
  N   N129      1.0  0.01287  0.73464  0.28633  1.0000
  C   C331      1.0  0.99690  0.73197  0.28092  1.0000
  C   C332      1.0  0.99166  0.71191  0.22497  1.0000
  N   N130      1.0  0.98705  0.69425  0.17538  1.0000
  C   C333      1.0  0.48725  0.50228  0.33025  1.0000
  C   C334      1.0  0.52071  0.50554  0.33629  1.0000
  N   N131      1.0  0.51288  0.48455  0.28694  1.0000
  C   C335      1.0  0.49691  0.48186  0.28154  1.0000
  C   C336      1.0  0.49168  0.96167  0.22602  1.0000
  N   N132      1.0  0.48709  0.44386  0.17682  1.0000
  C   C337      1.0  0.30290  0.56734  0.35880  1.0000
  C   C338      1.0  0.31635  0.58535  0.34678  1.0000
  C   C339      1.0  0.31499  0.61672  0.33687  1.0000
  C   C340      1.0  0.29978  0.63001  0.33883  1.0000
  C   C341      1.0  0.28595  0.61210  0.34686  1.0000
  C   C342      1.0  0.28789  0.58079  0.35585  1.0000
  H   H109      1.0  0.29881  0.65276  0.33303  1.0000
  H   H110      1.0  0.27815  0.56719  0.35722  1.0000
  H   H111      1.0  0.32727  0.57543  0.34699  1.0000
  C   C343      1.0  0.70507  0.94100  0.35837  1.0000
  C   C344      1.0  0.69165  0.92295  0.34619  1.0000
  C   C345      1.0  0.69304  0.89159  0.33611  1.0000
  C   C346      1.0  0.70826  0.87835  0.33819  1.0000
  C   C347      1.0  0.72207  0.89631  0.34637  1.0000
  C   C348      1.0  0.72009  0.92761  0.35547  1.0000
  H   H112      1.0  0.70925  0.85560  0.33230  1.0000
  H   H113      1.0  0.72982  0.94125  0.35700  1.0000
  H   H114      1.0  0.68071  0.93283  0.34641  1.0000
  C   C349      1.0  0.70493  0.56564  0.34759  1.0000
  C   C350      1.0  0.69156  0.58397  0.33699  1.0000
  C   C351      1.0  0.69307  0.61544  0.33298  1.0000
  C   C352      1.0  0.70828  0.62851  0.33904  1.0000
  C   C353      1.0  0.72199  0.61031  0.34669  1.0000
  C   C354      1.0  0.71998  0.57893  0.35224  1.0000
  H   H115      1.0  0.70937  0.65129  0.33451  1.0000
  H   H116      1.0  0.72967  0.56536  0.35958  1.0000
  H   H117      1.0  0.68058  0.57431  0.33619  1.0000
  C   C355      1.0  0.30286  0.94270  0.34735  1.0000
  C   C356      1.0  0.31620  0.92433  0.33667  1.0000
  C   C357      1.0  0.31467  0.89287  0.33254  1.0000
  C   C358      1.0  0.29945  0.87984  0.33855  1.0000
  C   C359      1.0  0.28576  0.89808  0.34638  1.0000
  C   C360      1.0  0.28779  0.92945  0.35201  1.0000
  H   H118      1.0  0.29835  0.85707  0.33401  1.0000
  H   H119      1.0  0.27812  0.94304  0.35943  1.0000
  H   H120      1.0  0.32720  0.93395  0.33586  1.0000
  C   C361      1.0  0.80304  0.81720  0.35499  1.0000
  C   C362      1.0  0.81649  0.83541  0.34587  1.0000
  C   C363      1.0  0.81507  0.86681  0.33630  1.0000
  C   C364      1.0  0.79981  0.87993  0.33583  1.0000
  C   C365      1.0  0.78612  0.86159  0.33929  1.0000
  C   C366      1.0  0.78799  0.83035  0.34868  1.0000
  H   H121      1.0  0.79867  0.90261  0.32782  1.0000
  H   H122      1.0  0.77821  0.81683  0.35152  1.0000
  H   H123      1.0  0.82745  0.82565  0.34819  1.0000
  C   C367      1.0  0.20494  0.69119  0.35481  1.0000
  C   C368      1.0  0.19151  0.67293  0.34555  1.0000
  C   C369      1.0  0.19297  0.64154  0.33584  1.0000
  C   C370      1.0  0.20824  0.62848  0.33540  1.0000
  C   C371      1.0  0.22191  0.64687  0.33915  1.0000
  C   C372      1.0  0.22001  0.67811  0.34856  1.0000
  H   H124      1.0  0.20941  0.60581  0.32744  1.0000
  H   H125      1.0  0.22977  0.69166  0.35153  1.0000
  H   H126      1.0  0.18054  0.68264  0.34782  1.0000
  C   C373      1.0  0.20462  0.81581  0.34958  1.0000
  C   C374      1.0  0.19141  0.83436  0.33675  1.0000
  C   C375      1.0  0.19309  0.86579  0.33200  1.0000
  C   C376      1.0  0.20836  0.87860  0.33932  1.0000
  C   C377      1.0  0.22194  0.86022  0.35026  1.0000
  C   C378      1.0  0.21971  0.82889  0.35632  1.0000
  H   H127      1.0  0.20953  0.90140  0.33716  1.0000
  H   H128      1.0  0.22930  0.81503  0.36208  1.0000
  H   H129      1.0  0.18038  0.82489  0.33469  1.0000
  C   C379      1.0  0.80315  0.69258  0.34923  1.0000
  C   C380      1.0  0.81635  0.67399  0.33657  1.0000
  C   C381      1.0  0.81464  0.64257  0.33184  1.0000
  C   C382      1.0  0.79936  0.62981  0.33909  1.0000
  C   C383      1.0  0.78580  0.64823  0.34991  1.0000
  C   C384      1.0  0.78805  0.67956  0.35587  1.0000
  H   H130      1.0  0.79818  0.60700  0.33706  1.0000
  H   H131      1.0  0.77847  0.69345  0.36167  1.0000
  H   H132      1.0  0.82739  0.68342  0.33460  1.0000
  C   C385      1.0  0.13024  0.60360  0.32831  1.0000
  C   C386      1.0  0.11907  0.62673  0.31896  1.0000
  C   C387      1.0  0.10259  0.62277  0.33229  1.0000
  C   C388      1.0  0.09737  0.59226  0.33956  1.0000
  C   C389      1.0  0.10820  0.56805  0.35352  1.0000
  C   C390      1.0  0.12460  0.57507  0.35150  1.0000
  H   H133      1.0  0.08557  0.58798  0.34590  1.0000
  H   H134      1.0  0.13284  0.55837  0.35716  1.0000
  H   H135      1.0  0.12332  0.64712  0.30006  1.0000
  C   C391      1.0  0.87779  0.90496  0.32891  1.0000
  C   C392      1.0  0.88898  0.88187  0.31981  1.0000
  C   C393      1.0  0.90546  0.88592  0.33299  1.0000
  C   C394      1.0  0.91065  0.91646  0.33970  1.0000
  C   C395      1.0  0.89979  0.94062  0.35366  1.0000
  C   C396      1.0  0.88340  0.93353  0.35181  1.0000
  H   H136      1.0  0.92244  0.92079  0.34624  1.0000
  H   H137      1.0  0.87514  0.95021  0.35737  1.0000
  H   H138      1.0  0.88476  0.86144  0.30117  1.0000
  C   C397      1.0  0.87682  0.60272  0.34690  1.0000
  C   C398      1.0  0.88793  0.62586  0.33802  1.0000
  C   C399      1.0  0.90452  0.62090  0.33407  1.0000
  C   C400      1.0  0.90953  0.59037  0.34643  1.0000
  C   C401      1.0  0.89872  0.56627  0.36289  1.0000
  C   C402      1.0  0.88239  0.57344  0.35808  1.0000
  H   H139      1.0  0.92134  0.58571  0.34718  1.0000
  H   H140      1.0  0.87408  0.55678  0.35896  1.0000
  H   H141      1.0  0.88347  0.64702  0.34122  1.0000
  C   C403      1.0  0.13092  0.90582  0.34815  1.0000
  C   C404      1.0  0.11976  0.88277  0.33926  1.0000
  C   C405      1.0  0.10318  0.88782  0.33555  1.0000
  C   C406      1.0  0.09822  0.91836  0.34819  1.0000
  C   C407      1.0  0.10908  0.94240  0.36439  1.0000
  C   C408      1.0  0.12540  0.93514  0.35947  1.0000
  H   H142      1.0  0.08642  0.92309  0.34901  1.0000
  H   H143      1.0  0.13374  0.95175  0.36019  1.0000
  H   H144      1.0  0.12418  0.86157  0.34219  1.0000
  C   C409      1.0  0.63029  0.85367  0.32568  1.0000
  C   C410      1.0  0.61911  0.87679  0.31681  1.0000
  C   C411      1.0  0.60264  0.87283  0.33065  1.0000
  C   C412      1.0  0.59743  0.84232  0.33811  1.0000
  C   C413      1.0  0.60827  0.81813  0.35182  1.0000
  C   C414      1.0  0.62466  0.82515  0.34903  1.0000
  H   H145      1.0  0.58563  0.83808  0.34511  1.0000
  H   H146      1.0  0.63292  0.80845  0.35456  1.0000
  H   H147      1.0  0.62333  0.89721  0.29804  1.0000
  C   C415      1.0  0.37773  0.65487  0.32654  1.0000
  C   C416      1.0  0.38894  0.63180  0.31778  1.0000
  C   C417      1.0  0.40542  0.63585  0.33138  1.0000
  C   C418      1.0  0.41058  0.66639  0.33855  1.0000
  C   C419      1.0  0.39971  0.69055  0.35207  1.0000
  C   C420      1.0  0.38332  0.68345  0.34957  1.0000
  H   H148      1.0  0.42237  0.67074  0.34520  1.0000
  H   H149      1.0  0.37505  0.70011  0.35500  1.0000
  H   H150      1.0  0.38475  0.61135  0.29917  1.0000
  C   C421      1.0  0.37684  0.85292  0.34912  1.0000
  C   C422      1.0  0.38799  0.87597  0.34025  1.0000
  C   C423      1.0  0.40455  0.87089  0.33566  1.0000
  C   C424      1.0  0.40952  0.84032  0.34766  1.0000
  C   C425      1.0  0.39867  0.81627  0.36412  1.0000
  C   C426      1.0  0.38235  0.82357  0.35964  1.0000
  H   H151      1.0  0.42132  0.83556  0.34780  1.0000
  H   H152      1.0  0.37400  0.80698  0.36015  1.0000
  H   H153      1.0  0.38358  0.89717  0.34372  1.0000
  C   C427      1.0  0.63092  0.65561  0.35068  1.0000
  C   C428      1.0  0.61972  0.63263  0.34193  1.0000
  C   C429      1.0  0.60317  0.63784  0.33723  1.0000
  C   C430      1.0  0.59826  0.66844  0.34926  1.0000
  C   C431      1.0  0.60916  0.69242  0.36546  1.0000
  C   C432      1.0  0.62546  0.68501  0.36100  1.0000
  H   H154      1.0  0.58646  0.67327  0.34931  1.0000
  H   H155      1.0  0.63384  0.70154  0.36136  1.0000
  H   H156      1.0  0.62408  0.61140  0.34529  1.0000
  C   C433      1.0  0.06298  0.72754  0.32965  1.0000
  C   C434      1.0  0.07083  0.75583  0.33088  1.0000
  C   C435      1.0  0.06302  0.78408  0.33563  1.0000
  C   C436      1.0  0.04631  0.78314  0.34169  1.0000
  C   C437      1.0  0.03766  0.75588  0.33629  1.0000
  C   C438      1.0  0.04625  0.72861  0.32876  1.0000
  H   H157      1.0  0.04022  0.80288  0.34272  1.0000
  H   H158      1.0  0.04009  0.70893  0.32826  1.0000
  H   H159      1.0  0.08289  0.75588  0.32914  1.0000
  C   C439      1.0  0.94502  0.78111  0.32877  1.0000
  C   C440      1.0  0.93707  0.75291  0.32931  1.0000
  C   C441      1.0  0.94477  0.72455  0.33346  1.0000
  C   C442      1.0  0.96147  0.72532  0.33850  1.0000
  C   C443      1.0  0.97024  0.75239  0.33139  1.0000
  C   C444      1.0  0.96176  0.77985  0.32707  1.0000
  H   H160      1.0  0.96748  0.70556  0.34364  1.0000
  H   H161      1.0  0.96802  0.79940  0.32475  1.0000
  H   H162      1.0  0.92501  0.75299  0.32799  1.0000
  C   C445      1.0  0.56300  0.97759  0.32954  1.0000
  C   C446      1.0  0.57084  0.50589  0.33088  1.0000
  C   C447      1.0  0.56302  0.53413  0.33589  1.0000
  C   C448      1.0  0.54632  0.53316  0.34212  1.0000
  C   C449      1.0  0.53767  0.00590  0.33653  1.0000
  C   C450      1.0  0.54627  0.97865  0.32885  1.0000
  H   H163      1.0  0.54022  0.55290  0.34299  1.0000
  H   H164      1.0  0.54012  0.95896  0.32821  1.0000
  H   H165      1.0  0.58290  0.50596  0.32901  1.0000
  C   C451      1.0  0.44502  0.53108  0.32854  1.0000
  C   C452      1.0  0.43708  0.00287  0.32934  1.0000
  C   C453      1.0  0.44479  0.97452  0.33387  1.0000
  C   C454      1.0  0.46149  0.97532  0.33893  1.0000
  C   C455      1.0  0.47025  0.50238  0.33158  1.0000
  C   C456      1.0  0.46176  0.52983  0.32698  1.0000
  H   H166      1.0  0.46749  0.95557  0.34444  1.0000
  H   H167      1.0  0.46802  0.54938  0.32439  1.0000
  H   H168      1.0  0.42502  0.00294  0.32800  1.0000
  N   N133      1.0  0.25921  0.60935  0.39766  1.0000
  C   C457      1.0  0.24345  0.61467  0.39663  1.0000
  H   H169      1.0  0.23627  0.60408  0.44173  1.0000
  N   N134      1.0  0.74879  0.89909  0.39749  1.0000
  C   C458      1.0  0.76455  0.89381  0.39664  1.0000
  H   H170      1.0  0.77171  0.90437  0.44190  1.0000
  C   C459      1.0  0.73775  0.62162  0.34886  1.0000
  C   C460      1.0  0.77000  0.63721  0.35265  1.0000
  N   N135      1.0  0.75884  0.65227  0.40100  1.0000
  C   C461      1.0  0.74319  0.64579  0.40230  1.0000
  C   C462      1.0  0.73440  0.66153  0.45614  1.0000
  N   N136      1.0  0.72665  0.67544  0.50381  1.0000
  C   C463      1.0  0.26999  0.88679  0.34867  1.0000
  C   C464      1.0  0.23773  0.87128  0.35294  1.0000
  N   N137      1.0  0.24891  0.85621  0.40118  1.0000
  C   C465      1.0  0.26456  0.86266  0.40227  1.0000
  C   C466      1.0  0.27336  0.84692  0.45606  1.0000
  N   N138      1.0  0.28111  0.83300  0.50368  1.0000
  C   C467      1.0  0.30416  0.53594  0.36589  1.0000
  C   C468      1.0  0.30437  0.97392  0.35478  1.0000
  N   N139      1.0  0.29622  0.98825  0.42052  1.0000
  C   C469      1.0  0.29587  0.51837  0.42982  1.0000
  C   C470      1.0  0.28789  0.52895  0.49750  1.0000
  N   N140      1.0  0.28086  0.53835  0.55713  1.0000
  C   C471      1.0  0.70376  0.97239  0.36561  1.0000
  C   C472      1.0  0.70345  0.53441  0.35492  1.0000
  N   N141      1.0  0.71161  0.52009  0.42060  1.0000
  C   C473      1.0  0.71201  0.98996  0.42974  1.0000
  C   C474      1.0  0.71999  0.97938  0.49739  1.0000
  N   N142      1.0  0.72703  0.96998  0.55701  1.0000
  C   C475      1.0  0.80441  0.78590  0.36376  1.0000
  C   C476      1.0  0.80478  0.72384  0.35578  1.0000
  N   N143      1.0  0.79655  0.73849  0.42060  1.0000
  C   C477      1.0  0.79613  0.76864  0.42847  1.0000
  C   C478      1.0  0.78804  0.77956  0.49519  1.0000
  N   N144      1.0  0.78091  0.78927  0.55401  1.0000
  C   C479      1.0  0.20352  0.72249  0.36371  1.0000
  C   C480      1.0  0.20304  0.78455  0.35604  1.0000
  N   N145      1.0  0.21130  0.76991  0.42078  1.0000
  C   C481      1.0  0.21177  0.73976  0.42849  1.0000
  C   C482      1.0  0.21989  0.72885  0.49516  1.0000
  N   N146      1.0  0.22704  0.71916  0.55390  1.0000
  N   N147      1.0  0.35160  0.65724  0.38795  1.0000
  C   C483      1.0  0.33596  0.65048  0.39306  1.0000
  H   H171      1.0  0.32982  0.65567  0.45006  1.0000
  N   N148      1.0  0.65640  0.85121  0.38722  1.0000
  C   C484      1.0  0.67205  0.85788  0.39242  1.0000
  H   H172      1.0  0.67816  0.85273  0.44955  1.0000
  C   C485      1.0  0.64734  0.64928  0.34678  1.0000
  C   C486      1.0  0.67897  0.63227  0.32942  1.0000
  N   N149      1.0  0.67323  0.64348  0.40782  1.0000
  C   C487      1.0  0.65813  0.65313  0.41883  1.0000
  C   C488      1.0  0.65403  0.66134  0.49928  1.0000
  N   N150      1.0  0.65055  0.66782  0.57125  1.0000
  C   C489      1.0  0.36041  0.85915  0.34552  1.0000
  C   C490      1.0  0.32875  0.87600  0.32882  1.0000
  N   N151      1.0  0.33458  0.86503  0.40730  1.0000
  C   C491      1.0  0.34970  0.85542  0.41799  1.0000
  C   C492      1.0  0.35388  0.84749  0.49855  1.0000
  N   N152      1.0  0.35745  0.84124  0.57057  1.0000
  N   N153      1.0  0.85166  0.90693  0.39061  1.0000
  C   C493      1.0  0.83602  0.90012  0.39526  1.0000
  H   H173      1.0  0.82984  0.90500  0.45236  1.0000
  N   N154      1.0  0.15634  0.60160  0.39014  1.0000
  C   C494      1.0  0.17200  0.60826  0.39471  1.0000
  H   H174      1.0  0.17812  0.60361  0.45217  1.0000
  C   C495      1.0  0.14736  0.89964  0.34434  1.0000
  C   C496      1.0  0.17907  0.88283  0.32756  1.0000
  N   N155      1.0  0.17321  0.89393  0.40581  1.0000
  C   C497      1.0  0.15811  0.90359  0.41654  1.0000
  C   C498      1.0  0.15395  0.91147  0.49719  1.0000
  N   N156      1.0  0.15045  0.91763  0.56937  1.0000
  C   C499      1.0  0.86037  0.60880  0.34356  1.0000
  C   C500      1.0  0.82865  0.62549  0.32779  1.0000
  N   N157      1.0  0.83461  0.61471  0.40615  1.0000
  C   C501      1.0  0.84975  0.60518  0.41650  1.0000
  C   C502      1.0  0.85403  0.59747  0.49707  1.0000
  N   N158      1.0  0.85766  0.59146  0.56916  1.0000
  C   C503      1.0  0.09255  0.64879  0.33586  1.0000
  C   C504      1.0  0.07178  0.70006  0.33050  1.0000
  N   N159      1.0  0.08726  0.70151  0.35340  1.0000
  C   C505      1.0  0.09763  0.67850  0.35815  1.0000
  C   C506      1.0  0.11082  0.68635  0.39644  1.0000
  N   N160      1.0  0.12235  0.69357  0.43084  1.0000
  C   C507      1.0  0.91553  0.85994  0.33665  1.0000
  C   C508      1.0  0.93628  0.80864  0.33045  1.0000
  N   N161      1.0  0.92082  0.80723  0.35398  1.0000
  C   C509      1.0  0.91047  0.83024  0.35924  1.0000
  C   C510      1.0  0.89732  0.82240  0.39796  1.0000
  N   N162      1.0  0.88582  0.81518  0.43271  1.0000
  N   N163      1.0  0.93028  0.64453  0.35305  1.0000
  C   C511      1.0  0.94082  0.66787  0.35528  1.0000
  H   H175      1.0  0.95184  0.66399  0.38034  1.0000
  N   N164      1.0  0.07743  0.86413  0.35554  1.0000
  C   C512      1.0  0.06692  0.84075  0.35791  1.0000
  H   H176      1.0  0.05594  0.84449  0.38379  1.0000
  C   C513      1.0  0.59260  0.89885  0.33450  1.0000
  C   C514      1.0  0.57181  0.95012  0.32994  1.0000
  N   N165      1.0  0.58732  0.95156  0.35224  1.0000
  C   C515      1.0  0.59772  0.92858  0.35632  1.0000
  C   C516      1.0  0.61089  0.93640  0.39483  1.0000
  N   N166      1.0  0.62241  0.94359  0.42938  1.0000
  C   C517      1.0  0.41549  0.60989  0.33522  1.0000
  C   C518      1.0  0.43627  0.55861  0.32979  1.0000
  N   N167      1.0  0.42078  0.55720  0.35273  1.0000
  C   C519      1.0  0.41040  0.58017  0.35734  1.0000
  C   C520      1.0  0.39727  0.57234  0.39629  1.0000
  N   N168      1.0  0.38578  0.56515  0.43121  1.0000
  N   N169      1.0  0.43034  0.89450  0.35414  1.0000
  C   C521      1.0  0.44088  0.91784  0.35603  1.0000
  H   H177      1.0  0.45188  0.91401  0.38128  1.0000
  N   N170      1.0  0.57739  0.61418  0.35646  1.0000
  C   C522      1.0  0.56687  0.59080  0.35835  1.0000
  H   H178      1.0  0.55592  0.59447  0.38455  1.0000
  C   C523      1.0  0.10527  0.97333  0.37973  1.0000
  C   C524      1.0  0.10439  0.53724  0.36832  1.0000
  N   N171      1.0  0.11413  0.52197  0.42445  1.0000
  C   C525      1.0  0.11470  0.99205  0.43580  1.0000
  C   C526      1.0  0.12408  0.98329  0.49998  1.0000
  N   N172      1.0  0.13231  0.97631  0.55755  1.0000
  C   C527      1.0  0.90257  0.53537  0.37835  1.0000
  C   C528      1.0  0.90358  0.97146  0.36810  1.0000
  N   N173      1.0  0.89382  0.98676  0.42408  1.0000
  C   C529      1.0  0.89320  0.51671  0.43495  1.0000
  C   C530      1.0  0.88384  0.52552  0.49912  1.0000
  N   N174      1.0  0.87562  0.53256  0.55668  1.0000
  C   C531      1.0  0.60542  0.72346  0.37970  1.0000
  C   C532      1.0  0.60447  0.78735  0.36730  1.0000
  N   N175      1.0  0.61428  0.77220  0.42337  1.0000
  C   C533      1.0  0.61489  0.74230  0.43523  1.0000
  C   C534      1.0  0.62430  0.73372  0.49945  1.0000
  N   N176      1.0  0.63257  0.72687  0.55699  1.0000
  C   C535      1.0  0.40246  0.78529  0.37874  1.0000
  C   C536      1.0  0.40347  0.72137  0.36709  1.0000
  N   N177      1.0  0.39366  0.73656  0.42308  1.0000
  C   C537      1.0  0.39303  0.76648  0.43456  1.0000
  C   C538      1.0  0.38364  0.77512  0.49882  1.0000
  N   N178      1.0  0.37539  0.78204  0.55638  1.0000
  N   N179      1.0  0.99509  0.77344  0.37893  1.0000
  C   C539      1.0  0.01108  0.77599  0.38371  1.0000
  H   H179      1.0  0.01583  0.79228  0.42357  1.0000
  N   N180      1.0  0.49509  0.52353  0.37879  1.0000
  C   C540      1.0  0.51108  0.52610  0.38354  1.0000
  H   H180      1.0  0.51583  0.54244  0.42323  1.0000
