data_image0
_chemical_formula_structural       C2HC2H2C2H2C4H2C4HNH2C4HNHC2HC2H2C2H2C4H2C4HNH2C4HNHC2HC2HC4H2C2H2C3HC4HC5H2C4HNH3C4HNH2C2HC2HC4H2C2H2C3HC4HC5H2C4HNH3C4HNH2C2H3CH2C3H2CHCNHC2H3CH2C3H2CHCNHC2HC2H2C2HC4H2C3NH2C3H2C2HC2H2C2HC4H2C3NH2C3H2C2HC2HC2HC2HC2HC2HC2H2C2H2C2H2C2H2C2H2C2H2C4H2C4H2C4H2C4H2C4H2C4H2C4HNH2C4HNH2C4HNH2C4HNH2C4HNH2C4HNH2C2HC2HC2HC2HC2HC2HC2H2C2H2C2H2C2H2C2H2C2H2C4H2C4H2C4H2C4H2C4H2C4H2C4HNH2C4HNH2C4HNH2C4HNH2C4HNH2C4HNH2
_chemical_formula_sum              "C288 H192 N24"
_cell_length_a       46.8326
_cell_length_b       46.8326
_cell_length_c       14.7782
_cell_angle_alpha    90
_cell_angle_beta     90
_cell_angle_gamma    120

_space_group_name_H-M_alt    "P 1"
_space_group_IT_number       1

loop_
  _space_group_symop_operation_xyz
  'x, y, z'

loop_
  _atom_site_type_symbol
  _atom_site_label
  _atom_site_symmetry_multiplicity
  _atom_site_fract_x
  _atom_site_fract_y
  _atom_site_fract_z
  _atom_site_occupancy
  C   C1        1.0  0.04835  0.30184  0.34699  1.0000
  C   C2        1.0  0.08327  0.31975  0.34939  1.0000
  H   H1        1.0  0.03735  0.31584  0.34589  1.0000
  C   C3        1.0  0.11739  0.25045  0.27222  1.0000
  C   C4        1.0  0.14748  0.25048  0.27065  1.0000
  H   H2        1.0  0.10829  0.25326  0.21186  1.0000
  H   H3        1.0  0.15902  0.25355  0.20959  1.0000
  C   C5        1.0  0.14804  0.40137  0.27227  1.0000
  C   C6        1.0  0.11797  0.37128  0.27066  1.0000
  H   H4        1.0  0.15994  0.41048  0.21191  1.0000
  H   H5        1.0  0.10950  0.35975  0.20957  1.0000
  C   C7        1.0  0.02916  0.26647  0.34705  1.0000
  C   C8        1.0  0.10021  0.30204  0.35179  1.0000
  C   C9        1.0  0.08331  0.26738  0.35045  1.0000
  C   C10       1.0  0.04839  0.25033  0.34817  1.0000
  H   H6        1.0  0.12553  0.31472  0.35395  1.0000
  H   H7        1.0  0.03742  0.22533  0.34882  1.0000
  C   C11       1.0  0.16411  0.25162  0.35151  1.0000
  C   C12       1.0  0.14907  0.25227  0.43392  1.0000
  C   C13       1.0  0.11891  0.25254  0.43693  1.0000
  C   C14       1.0  0.10260  0.25178  0.35462  1.0000
  H   H8        1.0  0.16193  0.25576  0.49292  1.0000
  N   N1        1.0  0.10731  0.25543  0.51891  1.0000
  H   H9        1.0  0.11849  0.25588  0.57487  1.0000
  H   H10       1.0  0.08633  0.25482  0.52471  1.0000
  C   C15       1.0  0.10250  0.35463  0.35150  1.0000
  C   C16       1.0  0.11819  0.36966  0.43390  1.0000
  C   C17       1.0  0.14863  0.39981  0.43690  1.0000
  C   C18       1.0  0.16421  0.41616  0.35462  1.0000
  H   H11       1.0  0.10882  0.35679  0.49289  1.0000
  N   N2        1.0  0.16310  0.41140  0.51891  1.0000
  H   H12       1.0  0.15236  0.40021  0.57485  1.0000
  C   C19       1.0  0.04836  0.80184  0.34699  1.0000
  C   C20       1.0  0.08327  0.81975  0.34939  1.0000
  H   H13       1.0  0.03735  0.81584  0.34589  1.0000
  C   C21       1.0  0.11739  0.75045  0.27222  1.0000
  C   C22       1.0  0.14748  0.75048  0.27065  1.0000
  H   H14       1.0  0.10829  0.75326  0.21186  1.0000
  H   H15       1.0  0.15902  0.75355  0.20959  1.0000
  C   C23       1.0  0.14804  0.90137  0.27227  1.0000
  C   C24       1.0  0.11797  0.87128  0.27066  1.0000
  H   H16       1.0  0.15994  0.91048  0.21191  1.0000
  H   H17       1.0  0.10950  0.85976  0.20957  1.0000
  C   C25       1.0  0.02916  0.76647  0.34705  1.0000
  C   C26       1.0  0.10021  0.80204  0.35179  1.0000
  C   C27       1.0  0.08331  0.76738  0.35045  1.0000
  C   C28       1.0  0.04839  0.75033  0.34817  1.0000
  H   H18       1.0  0.12553  0.81472  0.35395  1.0000
  H   H19       1.0  0.03742  0.72533  0.34882  1.0000
  C   C29       1.0  0.16411  0.75162  0.35151  1.0000
  C   C30       1.0  0.14907  0.75226  0.43392  1.0000
  C   C31       1.0  0.11891  0.75254  0.43693  1.0000
  C   C32       1.0  0.10260  0.75178  0.35462  1.0000
  H   H20       1.0  0.16193  0.75576  0.49292  1.0000
  N   N3        1.0  0.10731  0.75543  0.51891  1.0000
  H   H21       1.0  0.11849  0.75588  0.57487  1.0000
  H   H22       1.0  0.08633  0.75482  0.52471  1.0000
  C   C33       1.0  0.10250  0.85463  0.35150  1.0000
  C   C34       1.0  0.11819  0.86966  0.43390  1.0000
  C   C35       1.0  0.14863  0.89981  0.43690  1.0000
  C   C36       1.0  0.16421  0.91616  0.35462  1.0000
  H   H23       1.0  0.10882  0.85679  0.49289  1.0000
  N   N4        1.0  0.16310  0.91139  0.51891  1.0000
  H   H24       1.0  0.15236  0.90021  0.57485  1.0000
  C   C37       1.0  0.21690  0.25026  0.34696  1.0000
  C   C38       1.0  0.19899  0.26726  0.34943  1.0000
  H   H25       1.0  0.20290  0.22526  0.34586  1.0000
  C   C39       1.0  0.27105  0.07955  0.34952  1.0000
  C   C40       1.0  0.25405  0.04464  0.34689  1.0000
  H   H26       1.0  0.22905  0.03364  0.34562  1.0000
  C   C41       1.0  0.26851  0.47043  0.34687  1.0000
  C   C42       1.0  0.25151  0.43552  0.34957  1.0000
  C   C43       1.0  0.26856  0.37085  0.27214  1.0000
  C   C44       1.0  0.26849  0.40090  0.27078  1.0000
  H   H27       1.0  0.26569  0.35898  0.21170  1.0000
  H   H28       1.0  0.26542  0.40940  0.20977  1.0000
  C   C45       1.0  0.25414  0.14432  0.27231  1.0000
  C   C46       1.0  0.25419  0.11427  0.27072  1.0000
  H   H29       1.0  0.25691  0.15622  0.21196  1.0000
  H   H30       1.0  0.25724  0.10581  0.20962  1.0000
  C   C47       1.0  0.27023  0.24856  0.34691  1.0000
  C   C48       1.0  0.25410  0.21319  0.34805  1.0000
  C   C49       1.0  0.27115  0.19534  0.35055  1.0000
  H   H31       1.0  0.22910  0.19917  0.34859  1.0000
  C   C50       1.0  0.25228  0.26644  0.34691  1.0000
  C   C51       1.0  0.21670  0.30191  0.35180  1.0000
  C   C52       1.0  0.25136  0.31966  0.35041  1.0000
  C   C53       1.0  0.26841  0.30180  0.34797  1.0000
  H   H32       1.0  0.20403  0.31456  0.35395  1.0000
  C   C54       1.0  0.27022  0.02545  0.34692  1.0000
  C   C55       1.0  0.25232  0.48961  0.34692  1.0000
  C   C56       1.0  0.21686  0.41857  0.35208  1.0000
  C   C57       1.0  0.19910  0.43547  0.35062  1.0000
  C   C58       1.0  0.21695  0.47038  0.34810  1.0000
  H   H33       1.0  0.20422  0.39325  0.35434  1.0000
  H   H34       1.0  0.20293  0.48135  0.34860  1.0000
  C   C59       1.0  0.26716  0.41631  0.35162  1.0000
  C   C60       1.0  0.26649  0.40051  0.43387  1.0000
  C   C61       1.0  0.26615  0.37004  0.43674  1.0000
  C   C62       1.0  0.26696  0.35454  0.35434  1.0000
  H   H35       1.0  0.26283  0.40974  0.49287  1.0000
  N   N5        1.0  0.26318  0.35550  0.51869  1.0000
  H   H36       1.0  0.26273  0.36623  0.57467  1.0000
  H   H37       1.0  0.26379  0.33514  0.52449  1.0000
  H   H38       1.0  0.18346  0.43238  0.52476  1.0000
  C   C63       1.0  0.25541  0.09877  0.35148  1.0000
  C   C64       1.0  0.25609  0.11449  0.43390  1.0000
  C   C65       1.0  0.25634  0.14491  0.43700  1.0000
  C   C66       1.0  0.25553  0.16045  0.35474  1.0000
  H   H39       1.0  0.25960  0.10513  0.49287  1.0000
  N   N6        1.0  0.25925  0.15940  0.51899  1.0000
  H   H40       1.0  0.25973  0.14866  0.57493  1.0000
  H   H41       1.0  0.25862  0.17975  0.52484  1.0000
  C   C67       1.0  0.21690  0.75026  0.34696  1.0000
  C   C68       1.0  0.19899  0.76726  0.34943  1.0000
  H   H42       1.0  0.20290  0.72526  0.34586  1.0000
  C   C69       1.0  0.27105  0.57955  0.34952  1.0000
  C   C70       1.0  0.25405  0.54464  0.34689  1.0000
  H   H43       1.0  0.22905  0.53364  0.34562  1.0000
  C   C71       1.0  0.26851  0.97043  0.34687  1.0000
  C   C72       1.0  0.25151  0.93552  0.34957  1.0000
  C   C73       1.0  0.26856  0.87085  0.27214  1.0000
  C   C74       1.0  0.26849  0.90090  0.27078  1.0000
  H   H44       1.0  0.26569  0.85898  0.21170  1.0000
  H   H45       1.0  0.26542  0.90940  0.20977  1.0000
  C   C75       1.0  0.25414  0.64432  0.27231  1.0000
  C   C76       1.0  0.25419  0.61427  0.27072  1.0000
  H   H46       1.0  0.25691  0.65622  0.21196  1.0000
  H   H47       1.0  0.25724  0.60581  0.20962  1.0000
  C   C77       1.0  0.27023  0.74856  0.34691  1.0000
  C   C78       1.0  0.25410  0.71319  0.34805  1.0000
  C   C79       1.0  0.27115  0.69534  0.35055  1.0000
  H   H48       1.0  0.22910  0.69917  0.34859  1.0000
  C   C80       1.0  0.25228  0.76644  0.34691  1.0000
  C   C81       1.0  0.21670  0.80191  0.35180  1.0000
  C   C82       1.0  0.25136  0.81966  0.35041  1.0000
  C   C83       1.0  0.26842  0.80180  0.34797  1.0000
  H   H49       1.0  0.20403  0.81456  0.35395  1.0000
  C   C84       1.0  0.27022  0.52545  0.34692  1.0000
  C   C85       1.0  0.25232  0.98961  0.34692  1.0000
  C   C86       1.0  0.21686  0.91857  0.35208  1.0000
  C   C87       1.0  0.19910  0.93547  0.35062  1.0000
  C   C88       1.0  0.21696  0.97038  0.34810  1.0000
  H   H50       1.0  0.20422  0.89325  0.35434  1.0000
  H   H51       1.0  0.20293  0.98135  0.34860  1.0000
  C   C89       1.0  0.26716  0.91631  0.35162  1.0000
  C   C90       1.0  0.26649  0.90051  0.43387  1.0000
  C   C91       1.0  0.26615  0.87004  0.43674  1.0000
  C   C92       1.0  0.26696  0.85454  0.35434  1.0000
  H   H52       1.0  0.26283  0.90974  0.49287  1.0000
  N   N7        1.0  0.26318  0.85550  0.51869  1.0000
  H   H53       1.0  0.26274  0.86623  0.57467  1.0000
  H   H54       1.0  0.26379  0.83514  0.52449  1.0000
  H   H55       1.0  0.18346  0.93238  0.52476  1.0000
  C   C93       1.0  0.25541  0.59877  0.35148  1.0000
  C   C94       1.0  0.25609  0.61449  0.43390  1.0000
  C   C95       1.0  0.25634  0.64491  0.43700  1.0000
  C   C96       1.0  0.25553  0.66045  0.35474  1.0000
  H   H56       1.0  0.25960  0.60513  0.49287  1.0000
  N   N8        1.0  0.25925  0.65939  0.51899  1.0000
  H   H57       1.0  0.25973  0.64867  0.57493  1.0000
  H   H58       1.0  0.25862  0.67975  0.52484  1.0000
  C   C97       1.0  0.32352  0.24774  0.34955  1.0000
  C   C98       1.0  0.30561  0.26474  0.34685  1.0000
  H   H59       1.0  0.31960  0.28974  0.34562  1.0000
  H   H60       1.0  0.29351  0.48143  0.34558  1.0000
  H   H61       1.0  0.36255  0.10447  0.21185  1.0000
  C   C99       1.0  0.30581  0.21309  0.35214  1.0000
  H   H62       1.0  0.31848  0.20044  0.35442  1.0000
  H   H63       1.0  0.29341  0.31583  0.34844  1.0000
  C   C100      1.0  0.30559  0.04467  0.34807  1.0000
  C   C101      1.0  0.32346  0.07958  0.35061  1.0000
  C   C102      1.0  0.30571  0.09649  0.35200  1.0000
  H   H64       1.0  0.31961  0.03370  0.34865  1.0000
  H   H65       1.0  0.31836  0.12181  0.35422  1.0000
  C   C103      1.0  0.35840  0.26339  0.35165  1.0000
  H   H66       1.0  0.36053  0.25899  0.49297  1.0000
  C   C104      1.0  0.35836  0.09886  0.35466  1.0000
  N   N9        1.0  0.35933  0.10363  0.51898  1.0000
  H   H67       1.0  0.33897  0.08265  0.52482  1.0000
  C   C105      1.0  0.32352  0.74774  0.34955  1.0000
  C   C106      1.0  0.30561  0.76474  0.34685  1.0000
  H   H68       1.0  0.31960  0.78974  0.34562  1.0000
  H   H69       1.0  0.29351  0.98143  0.34558  1.0000
  H   H70       1.0  0.36255  0.60447  0.21185  1.0000
  C   C107      1.0  0.30581  0.71309  0.35214  1.0000
  H   H71       1.0  0.31848  0.70044  0.35442  1.0000
  H   H72       1.0  0.29341  0.81583  0.34844  1.0000
  C   C108      1.0  0.30559  0.54467  0.34807  1.0000
  C   C109      1.0  0.32346  0.57959  0.35061  1.0000
  C   C110      1.0  0.30571  0.59649  0.35200  1.0000
  H   H73       1.0  0.31961  0.53370  0.34865  1.0000
  H   H74       1.0  0.31836  0.62181  0.35422  1.0000
  C   C111      1.0  0.35840  0.76339  0.35165  1.0000
  H   H75       1.0  0.36053  0.75899  0.49297  1.0000
  C   C112      1.0  0.35836  0.59886  0.35466  1.0000
  N   N10       1.0  0.35933  0.60363  0.51898  1.0000
  H   H76       1.0  0.33897  0.58265  0.52482  1.0000
  C   C113      1.0  0.43922  0.19524  0.34953  1.0000
  C   C114      1.0  0.47413  0.21315  0.34708  1.0000
  H   H77       1.0  0.48513  0.19915  0.34596  1.0000
  C   C115      1.0  0.40519  0.26482  0.27206  1.0000
  C   C116      1.0  0.37507  0.26475  0.27068  1.0000
  H   H78       1.0  0.41420  0.26195  0.21162  1.0000
  H   H79       1.0  0.36349  0.26170  0.20971  1.0000
  C   C117      1.0  0.37449  0.11351  0.27220  1.0000
  C   C118      1.0  0.40452  0.14365  0.27067  1.0000
  H   H80       1.0  0.41296  0.15522  0.20965  1.0000
  C   C119      1.0  0.49332  0.24852  0.34707  1.0000
  C   C120      1.0  0.47409  0.26466  0.34810  1.0000
  C   C121      1.0  0.43917  0.24760  0.35049  1.0000
  C   C122      1.0  0.42227  0.21294  0.35181  1.0000
  H   H81       1.0  0.48506  0.28966  0.34856  1.0000
  H   H82       1.0  0.39694  0.20027  0.35387  1.0000
  C   C123      1.0  0.37345  0.26267  0.43400  1.0000
  C   C124      1.0  0.40357  0.26234  0.43680  1.0000
  C   C125      1.0  0.41986  0.26319  0.35429  1.0000
  N   N11       1.0  0.41516  0.25936  0.51873  1.0000
  H   H83       1.0  0.40398  0.25890  0.57472  1.0000
  H   H84       1.0  0.43614  0.25999  0.52449  1.0000
  C   C126      1.0  0.41999  0.16037  0.35146  1.0000
  C   C127      1.0  0.40430  0.14531  0.43392  1.0000
  C   C128      1.0  0.37385  0.11518  0.43699  1.0000
  H   H85       1.0  0.41359  0.15823  0.49286  1.0000
  H   H86       1.0  0.37007  0.11482  0.57492  1.0000
  C   C129      1.0  0.43922  0.69524  0.34953  1.0000
  C   C130      1.0  0.47413  0.71315  0.34708  1.0000
  H   H87       1.0  0.48513  0.69915  0.34596  1.0000
  C   C131      1.0  0.40519  0.76482  0.27206  1.0000
  C   C132      1.0  0.37507  0.76475  0.27068  1.0000
  H   H88       1.0  0.41420  0.76196  0.21162  1.0000
  H   H89       1.0  0.36349  0.76170  0.20971  1.0000
  C   C133      1.0  0.37449  0.61351  0.27220  1.0000
  C   C134      1.0  0.40452  0.64365  0.27067  1.0000
  H   H90       1.0  0.41296  0.65522  0.20965  1.0000
  C   C135      1.0  0.49332  0.74852  0.34707  1.0000
  C   C136      1.0  0.47409  0.76466  0.34810  1.0000
  C   C137      1.0  0.43917  0.74760  0.35049  1.0000
  C   C138      1.0  0.42227  0.71294  0.35181  1.0000
  H   H91       1.0  0.48506  0.78966  0.34856  1.0000
  H   H92       1.0  0.39694  0.70027  0.35387  1.0000
  C   C139      1.0  0.37345  0.76267  0.43400  1.0000
  C   C140      1.0  0.40358  0.76234  0.43680  1.0000
  C   C141      1.0  0.41986  0.76319  0.35429  1.0000
  N   N12       1.0  0.41515  0.75936  0.51873  1.0000
  H   H93       1.0  0.40399  0.75890  0.57472  1.0000
  H   H94       1.0  0.43614  0.75999  0.52449  1.0000
  C   C142      1.0  0.41999  0.66037  0.35146  1.0000
  C   C143      1.0  0.40430  0.64531  0.43392  1.0000
  C   C144      1.0  0.37385  0.61518  0.43699  1.0000
  H   H95       1.0  0.41359  0.65823  0.49286  1.0000
  H   H96       1.0  0.37007  0.61483  0.57492  1.0000
  C   C145      1.0  0.93922  0.19524  0.34953  1.0000
  C   C146      1.0  0.97413  0.21315  0.34708  1.0000
  H   H97       1.0  0.98513  0.19915  0.34596  1.0000
  C   C147      1.0  0.54836  0.30184  0.34699  1.0000
  C   C148      1.0  0.58327  0.31975  0.34939  1.0000
  H   H98       1.0  0.53735  0.31584  0.34589  1.0000
  C   C149      1.0  0.82352  0.24774  0.34955  1.0000
  C   C150      1.0  0.80561  0.26474  0.34685  1.0000
  H   H99       1.0  0.81960  0.28974  0.34562  1.0000
  C   C151      1.0  0.71690  0.25026  0.34696  1.0000
  C   C152      1.0  0.69899  0.26726  0.34943  1.0000
  H   H100      1.0  0.70290  0.22526  0.34586  1.0000
  C   C153      1.0  0.77105  0.07955  0.34952  1.0000
  C   C154      1.0  0.75405  0.04464  0.34689  1.0000
  H   H101      1.0  0.72905  0.03364  0.34562  1.0000
  C   C155      1.0  0.76851  0.47043  0.34687  1.0000
  C   C156      1.0  0.75151  0.43552  0.34957  1.0000
  H   H102      1.0  0.79351  0.48143  0.34558  1.0000
  C   C157      1.0  0.61739  0.25045  0.27222  1.0000
  C   C158      1.0  0.64748  0.25048  0.27065  1.0000
  H   H103      1.0  0.60829  0.25326  0.21186  1.0000
  H   H104      1.0  0.65902  0.25355  0.20959  1.0000
  C   C159      1.0  0.76856  0.37085  0.27214  1.0000
  C   C160      1.0  0.76848  0.40090  0.27078  1.0000
  H   H105      1.0  0.76569  0.35898  0.21170  1.0000
  H   H106      1.0  0.76542  0.40940  0.20977  1.0000
  C   C161      1.0  0.64804  0.40137  0.27227  1.0000
  C   C162      1.0  0.61797  0.37128  0.27066  1.0000
  H   H107      1.0  0.65994  0.41048  0.21191  1.0000
  H   H108      1.0  0.60950  0.35975  0.20957  1.0000
  C   C163      1.0  0.90519  0.26482  0.27206  1.0000
  C   C164      1.0  0.87507  0.26475  0.27068  1.0000
  H   H109      1.0  0.91420  0.26195  0.21162  1.0000
  H   H110      1.0  0.86349  0.26170  0.20971  1.0000
  C   C165      1.0  0.75414  0.14432  0.27231  1.0000
  C   C166      1.0  0.75419  0.11427  0.27072  1.0000
  H   H111      1.0  0.75691  0.15622  0.21196  1.0000
  H   H112      1.0  0.75724  0.10581  0.20962  1.0000
  C   C167      1.0  0.87449  0.11351  0.27220  1.0000
  C   C168      1.0  0.90451  0.14365  0.27067  1.0000
  H   H113      1.0  0.86255  0.10447  0.21185  1.0000
  H   H114      1.0  0.91296  0.15522  0.20965  1.0000
  C   C169      1.0  0.99332  0.24852  0.34707  1.0000
  C   C170      1.0  0.97409  0.26466  0.34810  1.0000
  C   C171      1.0  0.93917  0.24760  0.35049  1.0000
  C   C172      1.0  0.92227  0.21294  0.35181  1.0000
  H   H115      1.0  0.98506  0.28966  0.34856  1.0000
  H   H116      1.0  0.89694  0.20027  0.35387  1.0000
  C   C173      1.0  0.52916  0.26647  0.34705  1.0000
  C   C174      1.0  0.60021  0.30204  0.35179  1.0000
  C   C175      1.0  0.58331  0.26738  0.35045  1.0000
  C   C176      1.0  0.54839  0.25033  0.34817  1.0000
  H   H117      1.0  0.62553  0.31472  0.35395  1.0000
  H   H118      1.0  0.53742  0.22533  0.34882  1.0000
  C   C177      1.0  0.77023  0.24856  0.34691  1.0000
  C   C178      1.0  0.75409  0.21319  0.34805  1.0000
  C   C179      1.0  0.77115  0.19534  0.35055  1.0000
  C   C180      1.0  0.80581  0.21309  0.35214  1.0000
  H   H119      1.0  0.72910  0.19917  0.34859  1.0000
  H   H120      1.0  0.81848  0.20044  0.35442  1.0000
  C   C181      1.0  0.75228  0.26644  0.34691  1.0000
  C   C182      1.0  0.71670  0.30191  0.35180  1.0000
  C   C183      1.0  0.75136  0.31966  0.35041  1.0000
  C   C184      1.0  0.76842  0.30180  0.34797  1.0000
  H   H121      1.0  0.70403  0.31456  0.35395  1.0000
  H   H122      1.0  0.79341  0.31583  0.34844  1.0000
  C   C185      1.0  0.77022  0.02545  0.34692  1.0000
  C   C186      1.0  0.80559  0.04467  0.34807  1.0000
  C   C187      1.0  0.82346  0.07958  0.35061  1.0000
  C   C188      1.0  0.80571  0.09649  0.35200  1.0000
  H   H123      1.0  0.81961  0.03370  0.34865  1.0000
  H   H124      1.0  0.81836  0.12181  0.35422  1.0000
  C   C189      1.0  0.75232  0.48961  0.34692  1.0000
  C   C190      1.0  0.71686  0.41857  0.35208  1.0000
  C   C191      1.0  0.69910  0.43547  0.35062  1.0000
  C   C192      1.0  0.71695  0.47038  0.34810  1.0000
  H   H125      1.0  0.70422  0.39325  0.35434  1.0000
  H   H126      1.0  0.70293  0.48135  0.34860  1.0000
  C   C193      1.0  0.66411  0.25162  0.35151  1.0000
  C   C194      1.0  0.64907  0.25227  0.43392  1.0000
  C   C195      1.0  0.61891  0.25254  0.43693  1.0000
  C   C196      1.0  0.60260  0.25178  0.35462  1.0000
  H   H127      1.0  0.66193  0.25576  0.49292  1.0000
  N   N13       1.0  0.60731  0.25543  0.51891  1.0000
  H   H128      1.0  0.61849  0.25588  0.57487  1.0000
  H   H129      1.0  0.58633  0.25482  0.52471  1.0000
  C   C197      1.0  0.76716  0.41631  0.35162  1.0000
  C   C198      1.0  0.76649  0.40051  0.43387  1.0000
  C   C199      1.0  0.76615  0.37004  0.43674  1.0000
  C   C200      1.0  0.76696  0.35454  0.35434  1.0000
  H   H130      1.0  0.76283  0.40974  0.49287  1.0000
  N   N14       1.0  0.76318  0.35550  0.51869  1.0000
  H   H131      1.0  0.76274  0.36623  0.57467  1.0000
  H   H132      1.0  0.76379  0.33514  0.52449  1.0000
  C   C201      1.0  0.60250  0.35463  0.35150  1.0000
  C   C202      1.0  0.61819  0.36966  0.43390  1.0000
  C   C203      1.0  0.64863  0.39981  0.43690  1.0000
  C   C204      1.0  0.66421  0.41616  0.35462  1.0000
  H   H133      1.0  0.60882  0.35679  0.49289  1.0000
  N   N15       1.0  0.66310  0.41140  0.51891  1.0000
  H   H134      1.0  0.65236  0.40021  0.57485  1.0000
  H   H135      1.0  0.68346  0.43238  0.52476  1.0000
  C   C205      1.0  0.85840  0.26339  0.35165  1.0000
  C   C206      1.0  0.87345  0.26267  0.43400  1.0000
  C   C207      1.0  0.90357  0.26234  0.43680  1.0000
  C   C208      1.0  0.91985  0.26319  0.35429  1.0000
  H   H136      1.0  0.86053  0.25899  0.49297  1.0000
  N   N16       1.0  0.91515  0.25936  0.51873  1.0000
  H   H137      1.0  0.90399  0.25890  0.57472  1.0000
  H   H138      1.0  0.93614  0.25999  0.52449  1.0000
  C   C209      1.0  0.75541  0.09877  0.35148  1.0000
  C   C210      1.0  0.75609  0.11449  0.43390  1.0000
  C   C211      1.0  0.75634  0.14491  0.43700  1.0000
  C   C212      1.0  0.75553  0.16045  0.35474  1.0000
  H   H139      1.0  0.75960  0.10513  0.49287  1.0000
  N   N17       1.0  0.75925  0.15940  0.51899  1.0000
  H   H140      1.0  0.75973  0.14866  0.57493  1.0000
  H   H141      1.0  0.75862  0.17975  0.52484  1.0000
  C   C213      1.0  0.91999  0.16037  0.35146  1.0000
  C   C214      1.0  0.90430  0.14531  0.43392  1.0000
  C   C215      1.0  0.87385  0.11518  0.43699  1.0000
  C   C216      1.0  0.85836  0.09886  0.35466  1.0000
  H   H142      1.0  0.91359  0.15823  0.49286  1.0000
  N   N18       1.0  0.85933  0.10363  0.51898  1.0000
  H   H143      1.0  0.87006  0.11482  0.57492  1.0000
  H   H144      1.0  0.83897  0.08265  0.52482  1.0000
  C   C217      1.0  0.93922  0.69524  0.34953  1.0000
  C   C218      1.0  0.97413  0.71315  0.34708  1.0000
  H   H145      1.0  0.98513  0.69915  0.34596  1.0000
  C   C219      1.0  0.54836  0.80184  0.34699  1.0000
  C   C220      1.0  0.58327  0.81975  0.34939  1.0000
  H   H146      1.0  0.53735  0.81584  0.34589  1.0000
  C   C221      1.0  0.82352  0.74774  0.34955  1.0000
  C   C222      1.0  0.80561  0.76474  0.34685  1.0000
  H   H147      1.0  0.81961  0.78974  0.34562  1.0000
  C   C223      1.0  0.71690  0.75026  0.34696  1.0000
  C   C224      1.0  0.69899  0.76726  0.34943  1.0000
  H   H148      1.0  0.70290  0.72526  0.34586  1.0000
  C   C225      1.0  0.77105  0.57955  0.34952  1.0000
  C   C226      1.0  0.75405  0.54464  0.34689  1.0000
  H   H149      1.0  0.72905  0.53364  0.34562  1.0000
  C   C227      1.0  0.76851  0.97043  0.34687  1.0000
  C   C228      1.0  0.75151  0.93552  0.34957  1.0000
  H   H150      1.0  0.79351  0.98143  0.34558  1.0000
  C   C229      1.0  0.61739  0.75045  0.27222  1.0000
  C   C230      1.0  0.64748  0.75048  0.27065  1.0000
  H   H151      1.0  0.60828  0.75326  0.21186  1.0000
  H   H152      1.0  0.65902  0.75355  0.20959  1.0000
  C   C231      1.0  0.76856  0.87085  0.27214  1.0000
  C   C232      1.0  0.76848  0.90090  0.27078  1.0000
  H   H153      1.0  0.76569  0.85898  0.21170  1.0000
  H   H154      1.0  0.76542  0.90940  0.20977  1.0000
  C   C233      1.0  0.64804  0.90137  0.27227  1.0000
  C   C234      1.0  0.61797  0.87128  0.27066  1.0000
  H   H155      1.0  0.65994  0.91048  0.21191  1.0000
  H   H156      1.0  0.60950  0.85976  0.20957  1.0000
  C   C235      1.0  0.90519  0.76482  0.27206  1.0000
  C   C236      1.0  0.87507  0.76475  0.27068  1.0000
  H   H157      1.0  0.91420  0.76196  0.21162  1.0000
  H   H158      1.0  0.86349  0.76170  0.20971  1.0000
  C   C237      1.0  0.75414  0.64432  0.27231  1.0000
  C   C238      1.0  0.75419  0.61427  0.27072  1.0000
  H   H159      1.0  0.75691  0.65622  0.21196  1.0000
  H   H160      1.0  0.75724  0.60581  0.20962  1.0000
  C   C239      1.0  0.87449  0.61351  0.27220  1.0000
  C   C240      1.0  0.90451  0.64365  0.27067  1.0000
  H   H161      1.0  0.86255  0.60447  0.21185  1.0000
  H   H162      1.0  0.91296  0.65522  0.20965  1.0000
  C   C241      1.0  0.99332  0.74852  0.34707  1.0000
  C   C242      1.0  0.97409  0.76466  0.34810  1.0000
  C   C243      1.0  0.93917  0.74760  0.35049  1.0000
  C   C244      1.0  0.92227  0.71294  0.35181  1.0000
  H   H163      1.0  0.98506  0.78966  0.34856  1.0000
  H   H164      1.0  0.89694  0.70027  0.35387  1.0000
  C   C245      1.0  0.52916  0.76647  0.34705  1.0000
  C   C246      1.0  0.60021  0.80204  0.35179  1.0000
  C   C247      1.0  0.58331  0.76738  0.35045  1.0000
  C   C248      1.0  0.54839  0.75033  0.34817  1.0000
  H   H165      1.0  0.62553  0.81472  0.35395  1.0000
  H   H166      1.0  0.53742  0.72533  0.34882  1.0000
  C   C249      1.0  0.77023  0.74856  0.34691  1.0000
  C   C250      1.0  0.75409  0.71319  0.34805  1.0000
  C   C251      1.0  0.77115  0.69534  0.35055  1.0000
  C   C252      1.0  0.80581  0.71309  0.35214  1.0000
  H   H167      1.0  0.72910  0.69917  0.34859  1.0000
  H   H168      1.0  0.81848  0.70044  0.35442  1.0000
  C   C253      1.0  0.75228  0.76644  0.34691  1.0000
  C   C254      1.0  0.71670  0.80191  0.35180  1.0000
  C   C255      1.0  0.75136  0.81966  0.35041  1.0000
  C   C256      1.0  0.76841  0.80180  0.34797  1.0000
  H   H169      1.0  0.70403  0.81456  0.35395  1.0000
  H   H170      1.0  0.79341  0.81583  0.34844  1.0000
  C   C257      1.0  0.77022  0.52545  0.34692  1.0000
  C   C258      1.0  0.80559  0.54467  0.34807  1.0000
  C   C259      1.0  0.82346  0.57959  0.35061  1.0000
  C   C260      1.0  0.80571  0.59649  0.35200  1.0000
  H   H171      1.0  0.81961  0.53370  0.34865  1.0000
  H   H172      1.0  0.81836  0.62181  0.35422  1.0000
  C   C261      1.0  0.75232  0.98961  0.34692  1.0000
  C   C262      1.0  0.71686  0.91857  0.35208  1.0000
  C   C263      1.0  0.69910  0.93547  0.35062  1.0000
  C   C264      1.0  0.71695  0.97038  0.34810  1.0000
  H   H173      1.0  0.70422  0.89325  0.35434  1.0000
  H   H174      1.0  0.70293  0.98135  0.34860  1.0000
  C   C265      1.0  0.66411  0.75162  0.35151  1.0000
  C   C266      1.0  0.64907  0.75226  0.43392  1.0000
  C   C267      1.0  0.61891  0.75254  0.43693  1.0000
  C   C268      1.0  0.60260  0.75178  0.35462  1.0000
  H   H175      1.0  0.66193  0.75576  0.49292  1.0000
  N   N19       1.0  0.60731  0.75543  0.51891  1.0000
  H   H176      1.0  0.61849  0.75588  0.57487  1.0000
  H   H177      1.0  0.58633  0.75482  0.52471  1.0000
  C   C269      1.0  0.76716  0.91631  0.35162  1.0000
  C   C270      1.0  0.76649  0.90051  0.43387  1.0000
  C   C271      1.0  0.76615  0.87004  0.43674  1.0000
  C   C272      1.0  0.76696  0.85454  0.35434  1.0000
  H   H178      1.0  0.76283  0.90974  0.49287  1.0000
  N   N20       1.0  0.76318  0.85550  0.51869  1.0000
  H   H179      1.0  0.76274  0.86623  0.57467  1.0000
  H   H180      1.0  0.76379  0.83514  0.52449  1.0000
  C   C273      1.0  0.60250  0.85463  0.35150  1.0000
  C   C274      1.0  0.61819  0.86966  0.43390  1.0000
  C   C275      1.0  0.64863  0.89981  0.43690  1.0000
  C   C276      1.0  0.66421  0.91616  0.35462  1.0000
  H   H181      1.0  0.60882  0.85679  0.49289  1.0000
  N   N21       1.0  0.66310  0.91139  0.51891  1.0000
  H   H182      1.0  0.65236  0.90021  0.57485  1.0000
  H   H183      1.0  0.68346  0.93238  0.52476  1.0000
  C   C277      1.0  0.85840  0.76339  0.35165  1.0000
  C   C278      1.0  0.87344  0.76267  0.43400  1.0000
  C   C279      1.0  0.90358  0.76234  0.43680  1.0000
  C   C280      1.0  0.91986  0.76319  0.35429  1.0000
  H   H184      1.0  0.86053  0.75899  0.49297  1.0000
  N   N22       1.0  0.91515  0.75936  0.51873  1.0000
  H   H185      1.0  0.90398  0.75890  0.57472  1.0000
  H   H186      1.0  0.93614  0.75999  0.52449  1.0000
  C   C281      1.0  0.75541  0.59877  0.35148  1.0000
  C   C282      1.0  0.75609  0.61449  0.43390  1.0000
  C   C283      1.0  0.75634  0.64491  0.43700  1.0000
  C   C284      1.0  0.75553  0.66045  0.35474  1.0000
  H   H187      1.0  0.75960  0.60513  0.49287  1.0000
  N   N23       1.0  0.75925  0.65939  0.51899  1.0000
  H   H188      1.0  0.75973  0.64867  0.57493  1.0000
  H   H189      1.0  0.75862  0.67975  0.52484  1.0000
  C   C285      1.0  0.91999  0.66037  0.35146  1.0000
  C   C286      1.0  0.90430  0.64531  0.43392  1.0000
  C   C287      1.0  0.87384  0.61518  0.43699  1.0000
  C   C288      1.0  0.85836  0.59886  0.35466  1.0000
  H   H190      1.0  0.91359  0.65823  0.49286  1.0000
  N   N24       1.0  0.85933  0.60363  0.51898  1.0000
  H   H191      1.0  0.87007  0.61483  0.57492  1.0000
  H   H192      1.0  0.83897  0.58265  0.52482  1.0000
