data_image0
_chemical_formula_structural       NCHC2NC2NC2NC2NC2NC2N2CHNCHNCHNCHC2NC2NC2NC2N2CHC2NC2NC2NC2NC2NC2N2CHNCHNCHNCHC2NC2NC2NC2N2CHNCHC2NC2NC2NC2N2CHNCHC2NC2NC2NC2N2CHNCHC2NC2NC2NC2N2CHNCHC2NC2NC2NC2NC6H3C6H3C6H3C6H3C6H3C6H3C6H3C6H3C6H3C6H3C6H3C6H3C6H3C6H3C6H3C6H3C6H3C6H3C6H3C6H3C6H3C6H3C6H3C6H3C2NC2N2CHNCHNCHC2NC2NC2NC2NC2NC2NC2NC2N2CHNCHC2NC2N2CHNCHNCHC2NC2NC2NC2NC2NC2NC2NC2N2CHNCHC2NC2NC2NC2N2CHNCHC2NC2NC2NC2N2CHNCHC2NC2NC2NC2N2CHNCHC2NC2NC2NC2N2CHNCH
_chemical_formula_sum              "N108 C324 H108"
_cell_length_a       42.5241
_cell_length_b       54.0692
_cell_length_c       14.8776
_cell_angle_alpha    90
_cell_angle_beta     90
_cell_angle_gamma    90

_space_group_name_H-M_alt    "P 1"
_space_group_IT_number       1

loop_
  _space_group_symop_operation_xyz
  'x, y, z'

loop_
  _atom_site_type_symbol
  _atom_site_label
  _atom_site_symmetry_multiplicity
  _atom_site_fract_x
  _atom_site_fract_y
  _atom_site_fract_z
  _atom_site_occupancy
  N   N1        1.0  0.47801  0.00596  0.31201  1.0000
  C   C1        1.0  0.49432  0.98439  0.30614  1.0000
  H   H1        1.0  0.48584  0.97057  0.26609  1.0000
  C   C2        1.0  0.02131  0.52595  0.32145  1.0000
  C   C3        1.0  0.98516  0.48184  0.33035  1.0000
  N   N2        1.0  0.97633  0.50160  0.27968  1.0000
  C   C4        1.0  0.99263  0.52317  0.27288  1.0000
  C   C5        1.0  0.98136  0.53911  0.21594  1.0000
  N   N3        1.0  0.97124  0.55309  0.16554  1.0000
  C   C6        1.0  0.31513  0.07217  0.32465  1.0000
  C   C7        1.0  0.38097  0.06563  0.33362  1.0000
  N   N4        1.0  0.36714  0.08058  0.27164  1.0000
  C   C8        1.0  0.33570  0.08400  0.26280  1.0000
  C   C9        1.0  0.32671  0.09878  0.19867  1.0000
  N   N5        1.0  0.31875  0.11186  0.14229  1.0000
  C   C10       1.0  0.69408  0.93648  0.34991  1.0000
  C   C11       1.0  0.62788  0.94064  0.36121  1.0000
  N   N6        1.0  0.64499  0.95380  0.30024  1.0000
  C   C12       1.0  0.67701  0.95288  0.29321  1.0000
  C   C13       1.0  0.68968  0.96525  0.22769  1.0000
  N   N7        1.0  0.70087  0.97616  0.16970  1.0000
  N   N8        1.0  0.17933  0.55685  0.29712  1.0000
  C   C14       1.0  0.14773  0.55258  0.29191  1.0000
  H   H2        1.0  0.13920  0.54171  0.24131  1.0000
  N   N9        1.0  0.83151  0.42382  0.27170  1.0000
  C   C15       1.0  0.86311  0.42552  0.26247  1.0000
  H   H3        1.0  0.87401  0.41487  0.21501  1.0000
  N   N10       1.0  0.50117  0.12304  0.31084  1.0000
  C   C16       1.0  0.51523  0.14564  0.30749  1.0000
  H   H4        1.0  0.53392  0.14818  0.26535  1.0000
  N   N11       1.0  0.50707  0.88466  0.31133  1.0000
  C   C17       1.0  0.49303  0.86207  0.30648  1.0000
  H   H5        1.0  0.47553  0.85929  0.26054  1.0000
  C   C18       1.0  0.03286  0.61768  0.32177  1.0000
  C   C19       1.0  0.00587  0.66546  0.32605  1.0000
  N   N12       1.0  0.03125  0.65989  0.27415  1.0000
  C   C20       1.0  0.04501  0.63732  0.26855  1.0000
  C   C21       1.0  0.06815  0.63539  0.21176  1.0000
  N   N13       1.0  0.08859  0.63374  0.16165  1.0000
  C   C22       1.0  0.97664  0.39020  0.31617  1.0000
  C   C23       1.0  0.00348  0.34246  0.32352  1.0000
  N   N14       1.0  0.97949  0.34816  0.26676  1.0000
  C   C24       1.0  0.96596  0.37077  0.25934  1.0000
  C   C25       1.0  0.94427  0.37287  0.19814  1.0000
  N   N15       1.0  0.92508  0.37463  0.14418  1.0000
  N   N16       1.0  0.51388  0.52363  0.30306  1.0000
  C   C26       1.0  0.48274  0.51809  0.29879  1.0000
  H   H6        1.0  0.46833  0.52875  0.25983  1.0000
  C   C27       1.0  0.97238  0.01057  0.33283  1.0000
  C   C28       1.0  0.03686  0.99706  0.33839  1.0000
  N   N17       1.0  0.01517  0.98412  0.29021  1.0000
  C   C29       1.0  0.98406  0.98975  0.28466  1.0000
  C   C30       1.0  0.96765  0.97610  0.23012  1.0000
  N   N18       1.0  0.95330  0.96398  0.18178  1.0000
  C   C31       1.0  0.39549  0.42792  0.33549  1.0000
  C   C32       1.0  0.38804  0.37604  0.34423  1.0000
  N   N19       1.0  0.36913  0.39058  0.29270  1.0000
  C   C33       1.0  0.37163  0.41557  0.28572  1.0000
  C   C34       1.0  0.35268  0.42614  0.22892  1.0000
  N   N20       1.0  0.33589  0.43540  0.17870  1.0000
  C   C35       1.0  0.61182  0.58014  0.33682  1.0000
  C   C36       1.0  0.61964  0.63203  0.34383  1.0000
  N   N21       1.0  0.63857  0.61726  0.29326  1.0000
  C   C37       1.0  0.63590  0.59227  0.28710  1.0000
  C   C38       1.0  0.65497  0.58148  0.23116  1.0000
  N   N22       1.0  0.67188  0.57203  0.18173  1.0000
  N   N23       1.0  0.09376  0.91321  0.29652  1.0000
  C   C39       1.0  0.09627  0.88826  0.29041  1.0000
  H   H7        1.0  0.08133  0.87892  0.24869  1.0000
  N   N24       1.0  0.91541  0.09505  0.29614  1.0000
  C   C40       1.0  0.91274  0.12001  0.29090  1.0000
  H   H8        1.0  0.92772  0.12951  0.24980  1.0000
  N   N25       1.0  0.30495  0.52890  0.30288  1.0000
  C   C41       1.0  0.32770  0.51130  0.29661  1.0000
  H   H9        1.0  0.32414  0.49653  0.25503  1.0000
  N   N26       1.0  0.70214  0.47884  0.30678  1.0000
  C   C42       1.0  0.67963  0.49663  0.30085  1.0000
  H   H10       1.0  0.68325  0.51135  0.25907  1.0000
  C   C43       1.0  0.20092  0.04969  0.32891  1.0000
  C   C44       1.0  0.15192  0.01440  0.33925  1.0000
  N   N27       1.0  0.14974  0.03497  0.28707  1.0000
  C   C45       1.0  0.17250  0.05248  0.27929  1.0000
  C   C46       1.0  0.16688  0.07015  0.22219  1.0000
  N   N28       1.0  0.16186  0.08574  0.17173  1.0000
  C   C47       1.0  0.80847  0.95807  0.32498  1.0000
  C   C48       1.0  0.85712  0.99369  0.33462  1.0000
  N   N29       1.0  0.85936  0.97318  0.28214  1.0000
  C   C49       1.0  0.83675  0.95554  0.27455  1.0000
  C   C50       1.0  0.84247  0.93800  0.21703  1.0000
  N   N30       1.0  0.84764  0.92252  0.16625  1.0000
  N   N31       1.0  0.20614  0.17340  0.31287  1.0000
  C   C51       1.0  0.20983  0.14849  0.30649  1.0000
  H   H11       1.0  0.19524  0.13868  0.26520  1.0000
  N   N32       1.0  0.80223  0.83408  0.30731  1.0000
  C   C52       1.0  0.79852  0.85897  0.29995  1.0000
  H   H12       1.0  0.81289  0.86863  0.25755  1.0000
  C   C53       1.0  0.28352  0.68862  0.31983  1.0000
  C   C54       1.0  0.27341  0.63704  0.32986  1.0000
  N   N33       1.0  0.25511  0.65208  0.27873  1.0000
  C   C55       1.0  0.25895  0.67688  0.27075  1.0000
  C   C56       1.0  0.24009  0.68758  0.21414  1.0000
  N   N34       1.0  0.22301  0.69644  0.16380  1.0000
  C   C57       1.0  0.72426  0.31902  0.32365  1.0000
  C   C58       1.0  0.73436  0.37061  0.33554  1.0000
  N   N35       1.0  0.75227  0.35573  0.28263  1.0000
  C   C59       1.0  0.74849  0.33094  0.27387  1.0000
  C   C60       1.0  0.76693  0.32044  0.21562  1.0000
  N   N36       1.0  0.78360  0.31175  0.16381  1.0000
  N   N37       1.0  0.26730  0.29053  0.29761  1.0000
  C   C61       1.0  0.29280  0.30565  0.29214  1.0000
  H   H13       1.0  0.29642  0.31588  0.23532  1.0000
  N   N38       1.0  0.74106  0.71716  0.29650  1.0000
  C   C62       1.0  0.71555  0.70205  0.29112  1.0000
  H   H14       1.0  0.71186  0.69189  0.23416  1.0000
  C   C63       1.0  0.24655  0.77510  0.31465  1.0000
  C   C64       1.0  0.19279  0.80466  0.32180  1.0000
  N   N39       1.0  0.19859  0.78941  0.25110  1.0000
  C   C65       1.0  0.22454  0.77512  0.24308  1.0000
  C   C66       1.0  0.22720  0.76217  0.16976  1.0000
  N   N40       1.0  0.22964  0.75114  0.10420  1.0000
  C   C67       1.0  0.76156  0.23262  0.31588  1.0000
  C   C68       1.0  0.81552  0.20325  0.32316  1.0000
  N   N41       1.0  0.80969  0.21854  0.25261  1.0000
  C   C69       1.0  0.78366  0.23275  0.24455  1.0000
  C   C70       1.0  0.78101  0.24575  0.17138  1.0000
  N   N42       1.0  0.77860  0.25683  0.10590  1.0000
  N   N43       1.0  0.45208  0.29197  0.30702  1.0000
  C   C71       1.0  0.47594  0.27544  0.29917  1.0000
  H   H15       1.0  0.49247  0.27802  0.25021  1.0000
  N   N44       1.0  0.55613  0.71626  0.30505  1.0000
  C   C72       1.0  0.53222  0.73276  0.29744  1.0000
  H   H16       1.0  0.51561  0.73011  0.24874  1.0000
  C   C73       1.0  0.07996  0.78985  0.31557  1.0000
  C   C74       1.0  0.03219  0.75418  0.32887  1.0000
  N   N45       1.0  0.05565  0.75227  0.26725  1.0000
  C   C75       1.0  0.07915  0.76899  0.25736  1.0000
  C   C76       1.0  0.09901  0.76478  0.19258  1.0000
  N   N46       1.0  0.11659  0.76103  0.13559  1.0000
  C   C77       1.0  0.92830  0.21836  0.31753  1.0000
  C   C78       1.0  0.97618  0.25397  0.33027  1.0000
  N   N47       1.0  0.95264  0.25591  0.26894  1.0000
  C   C79       1.0  0.92905  0.23925  0.25941  1.0000
  C   C80       1.0  0.90913  0.24347  0.19479  1.0000
  N   N48       1.0  0.89150  0.24724  0.13796  1.0000
  N   N49       1.0  0.14078  0.27831  0.31297  1.0000
  C   C81       1.0  0.11178  0.28874  0.30805  1.0000
  H   H17       1.0  0.10818  0.30326  0.26533  1.0000
  N   N50       1.0  0.86780  0.72919  0.31186  1.0000
  C   C82       1.0  0.89683  0.71878  0.30731  1.0000
  H   H18       1.0  0.90052  0.70426  0.26464  1.0000
  C   C83       1.0  0.36017  0.75820  0.31869  1.0000
  C   C84       1.0  0.42132  0.77815  0.32535  1.0000
  N   N51       1.0  0.41397  0.75831  0.27314  1.0000
  C   C85       1.0  0.38498  0.74806  0.26645  1.0000
  C   C86       1.0  0.38215  0.73005  0.20907  1.0000
  N   N52       1.0  0.37979  0.71414  0.15840  1.0000
  C   C87       1.0  0.64781  0.24932  0.32025  1.0000
  C   C88       1.0  0.58655  0.22951  0.32662  1.0000
  N   N53       1.0  0.59401  0.24937  0.27465  1.0000
  C   C89       1.0  0.62305  0.25955  0.26804  1.0000
  C   C90       1.0  0.62593  0.27763  0.21100  1.0000
  N   N54       1.0  0.62835  0.29361  0.16062  1.0000
  C   C91       1.0  0.46168  0.09346  0.35577  1.0000
  C   C92       1.0  0.42888  0.09041  0.34549  1.0000
  C   C93       1.0  0.41437  0.06687  0.34396  1.0000
  C   C94       1.0  0.43393  0.04577  0.35245  1.0000
  C   C95       1.0  0.46724  0.04772  0.35902  1.0000
  C   C96       1.0  0.48044  0.07187  0.35838  1.0000
  H   H19       1.0  0.42367  0.02864  0.35154  1.0000
  H   H20       1.0  0.50431  0.07398  0.35977  1.0000
  H   H21       1.0  0.41510  0.10584  0.33904  1.0000
  C   C97       1.0  0.54585  0.91418  0.36080  1.0000
  C   C98       1.0  0.57895  0.91657  0.35867  1.0000
  C   C99       1.0  0.59428  0.93978  0.35776  1.0000
  C   C100      1.0  0.57529  0.96127  0.35422  1.0000
  C   C101      1.0  0.54190  0.95989  0.35262  1.0000
  C   C102      1.0  0.52775  0.93610  0.35547  1.0000
  H   H22       1.0  0.58604  0.97822  0.35350  1.0000
  H   H23       1.0  0.50377  0.93469  0.35842  1.0000
  H   H24       1.0  0.59238  0.90086  0.35650  1.0000
  C   C103      1.0  0.04646  0.59345  0.32736  1.0000
  C   C104      1.0  0.07927  0.59042  0.33758  1.0000
  C   C105      1.0  0.09380  0.56689  0.33916  1.0000
  C   C106      1.0  0.07427  0.54578  0.33070  1.0000
  C   C107      1.0  0.04095  0.54771  0.32422  1.0000
  C   C108      1.0  0.02773  0.57185  0.32485  1.0000
  H   H25       1.0  0.08454  0.52866  0.33170  1.0000
  H   H26       1.0  0.00385  0.57394  0.32353  1.0000
  H   H27       1.0  0.09303  0.60588  0.34395  1.0000
  C   C109      1.0  0.96235  0.41417  0.32242  1.0000
  C   C110      1.0  0.92925  0.41655  0.32459  1.0000
  C   C111      1.0  0.91393  0.43977  0.32568  1.0000
  C   C112      1.0  0.93291  0.46126  0.32926  1.0000
  C   C113      1.0  0.96631  0.45987  0.33074  1.0000
  C   C114      1.0  0.98045  0.43608  0.32777  1.0000
  H   H28       1.0  0.92216  0.47821  0.33008  1.0000
  H   H29       1.0  0.00443  0.43467  0.32483  1.0000
  H   H30       1.0  0.91581  0.40085  0.32672  1.0000
  C   C115      1.0  0.43933  0.48887  0.34220  1.0000
  C   C116      1.0  0.43249  0.46324  0.34006  1.0000
  C   C117      1.0  0.40131  0.45406  0.33669  1.0000
  C   C118      1.0  0.37648  0.47149  0.33858  1.0000
  C   C119      1.0  0.38194  0.49730  0.34080  1.0000
  C   C120      1.0  0.41361  0.50557  0.34260  1.0000
  H   H31       1.0  0.35383  0.46522  0.34286  1.0000
  H   H32       1.0  0.41801  0.52416  0.34537  1.0000
  H   H33       1.0  0.45077  0.45090  0.33803  1.0000
  C   C121      1.0  0.56800  0.51906  0.34790  1.0000
  C   C122      1.0  0.57483  0.54470  0.34294  1.0000
  C   C123      1.0  0.60599  0.55399  0.33935  1.0000
  C   C124      1.0  0.63092  0.53666  0.34275  1.0000
  C   C125      1.0  0.62555  0.51086  0.34550  1.0000
  C   C126      1.0  0.59395  0.50255  0.34741  1.0000
  H   H34       1.0  0.65354  0.54295  0.34684  1.0000
  H   H35       1.0  0.58984  0.48393  0.34530  1.0000
  H   H36       1.0  0.55656  0.55704  0.34218  1.0000
  C   C127      1.0  0.06889  0.98884  0.34095  1.0000
  C   C128      1.0  0.07572  0.96321  0.34312  1.0000
  C   C129      1.0  0.10690  0.95403  0.34645  1.0000
  C   C130      1.0  0.13173  0.97146  0.34453  1.0000
  C   C131      1.0  0.12627  0.99727  0.34237  1.0000
  C   C132      1.0  0.09461  0.00554  0.34059  1.0000
  H   H37       1.0  0.15438  0.96520  0.34030  1.0000
  H   H38       1.0  0.09020  0.02414  0.33784  1.0000
  H   H39       1.0  0.05743  0.95088  0.34509  1.0000
  C   C133      1.0  0.94023  0.01907  0.33525  1.0000
  C   C134      1.0  0.93341  0.04471  0.34020  1.0000
  C   C135      1.0  0.90225  0.05400  0.34381  1.0000
  C   C136      1.0  0.87732  0.03667  0.34041  1.0000
  C   C137      1.0  0.88269  0.01087  0.33764  1.0000
  C   C138      1.0  0.91429  0.00256  0.33574  1.0000
  H   H40       1.0  0.85470  0.04297  0.33633  1.0000
  H   H41       1.0  0.91839  0.98394  0.33778  1.0000
  H   H42       1.0  0.95169  0.05704  0.34095  1.0000
  C   C139      1.0  0.24228  0.11136  0.34688  1.0000
  C   C140      1.0  0.27397  0.10355  0.34388  1.0000
  C   C141      1.0  0.28250  0.07840  0.33361  1.0000
  C   C142      1.0  0.25810  0.06054  0.33099  1.0000
  C   C143      1.0  0.22588  0.06754  0.33323  1.0000
  C   C144      1.0  0.21870  0.09302  0.34236  1.0000
  H   H43       1.0  0.26388  0.04228  0.32318  1.0000
  H   H44       1.0  0.19574  0.09837  0.34932  1.0000
  H   H45       1.0  0.29137  0.11664  0.34726  1.0000
  C   C145      1.0  0.76667  0.89641  0.34210  1.0000
  C   C146      1.0  0.73512  0.90457  0.34634  1.0000
  C   C147      1.0  0.72674  0.92991  0.34286  1.0000
  C   C148      1.0  0.75138  0.94744  0.33457  1.0000
  C   C149      1.0  0.78347  0.94020  0.32945  1.0000
  C   C150      1.0  0.79040  0.91459  0.33491  1.0000
  H   H46       1.0  0.74589  0.96587  0.33365  1.0000
  H   H47       1.0  0.81335  0.90902  0.33831  1.0000
  H   H48       1.0  0.71764  0.89156  0.35031  1.0000
  C   C151      1.0  0.26595  0.61137  0.33605  1.0000
  C   C152      1.0  0.23425  0.60357  0.33898  1.0000
  C   C153      1.0  0.22570  0.57843  0.34943  1.0000
  C   C154      1.0  0.25009  0.56055  0.35204  1.0000
  C   C155      1.0  0.28232  0.56755  0.34988  1.0000
  C   C156      1.0  0.28952  0.59302  0.34071  1.0000
  H   H49       1.0  0.24430  0.54231  0.36008  1.0000
  H   H50       1.0  0.31248  0.59835  0.33382  1.0000
  H   H51       1.0  0.21687  0.61667  0.33556  1.0000
  C   C157      1.0  0.74156  0.39638  0.34086  1.0000
  C   C158      1.0  0.77311  0.40453  0.33665  1.0000
  C   C159      1.0  0.78149  0.42987  0.34035  1.0000
  C   C160      1.0  0.75685  0.44741  0.34869  1.0000
  C   C161      1.0  0.72475  0.44016  0.35363  1.0000
  C   C162      1.0  0.71783  0.41456  0.34804  1.0000
  H   H52       1.0  0.76235  0.46583  0.34983  1.0000
  H   H53       1.0  0.69489  0.40898  0.34464  1.0000
  H   H54       1.0  0.79060  0.39153  0.33271  1.0000
  C   C163      1.0  0.40310  0.30722  0.36246  1.0000
  C   C164      1.0  0.37184  0.29856  0.36023  1.0000
  C   C165      1.0  0.34602  0.31481  0.35391  1.0000
  C   C166      1.0  0.35176  0.34042  0.34611  1.0000
  C   C167      1.0  0.38284  0.34997  0.34787  1.0000
  C   C168      1.0  0.40821  0.33299  0.35505  1.0000
  H   H55       1.0  0.33296  0.35226  0.34382  1.0000
  H   H56       1.0  0.43085  0.33943  0.35504  1.0000
  H   H57       1.0  0.36769  0.27988  0.36164  1.0000
  C   C169      1.0  0.60512  0.70098  0.36034  1.0000
  C   C170      1.0  0.63644  0.70950  0.35820  1.0000
  C   C171      1.0  0.66217  0.69313  0.35243  1.0000
  C   C172      1.0  0.65623  0.66752  0.34515  1.0000
  C   C173      1.0  0.62507  0.65810  0.34680  1.0000
  C   C174      1.0  0.59984  0.67521  0.35339  1.0000
  H   H58       1.0  0.67493  0.65559  0.34322  1.0000
  H   H59       1.0  0.57715  0.66889  0.35337  1.0000
  H   H60       1.0  0.64072  0.72816  0.35938  1.0000
  C   C175      1.0  0.10518  0.80718  0.32089  1.0000
  C   C176      1.0  0.13645  0.79853  0.32297  1.0000
  C   C177      1.0  0.16226  0.81481  0.32907  1.0000
  C   C178      1.0  0.15649  0.84042  0.33685  1.0000
  C   C179      1.0  0.12540  0.84994  0.33529  1.0000
  C   C180      1.0  0.10005  0.83295  0.32825  1.0000
  H   H61       1.0  0.17527  0.85227  0.33914  1.0000
  H   H62       1.0  0.07740  0.83937  0.32837  1.0000
  H   H63       1.0  0.14063  0.77986  0.32158  1.0000
  C   C181      1.0  0.90314  0.20098  0.32277  1.0000
  C   C182      1.0  0.87182  0.20951  0.32484  1.0000
  C   C183      1.0  0.84609  0.19315  0.33055  1.0000
  C   C184      1.0  0.85201  0.16753  0.33790  1.0000
  C   C185      1.0  0.88317  0.15811  0.33630  1.0000
  C   C186      1.0  0.90841  0.17521  0.32974  1.0000
  H   H64       1.0  0.83330  0.15561  0.33982  1.0000
  H   H65       1.0  0.93110  0.16888  0.32980  1.0000
  H   H66       1.0  0.86756  0.22817  0.32365  1.0000
  C   C187      1.0  0.21819  0.21466  0.36194  1.0000
  C   C188      1.0  0.24265  0.23239  0.36114  1.0000
  C   C189      1.0  0.23647  0.25806  0.36248  1.0000
  C   C190      1.0  0.20503  0.26627  0.36190  1.0000
  C   C191      1.0  0.17974  0.24926  0.36205  1.0000
  C   C192      1.0  0.18688  0.22362  0.36001  1.0000
  H   H67       1.0  0.20061  0.28488  0.36502  1.0000
  H   H68       1.0  0.16885  0.21112  0.35760  1.0000
  H   H69       1.0  0.26554  0.22663  0.35780  1.0000
  C   C193      1.0  0.79043  0.79300  0.35913  1.0000
  C   C194      1.0  0.76590  0.77533  0.35925  1.0000
  C   C195      1.0  0.77199  0.74965  0.36107  1.0000
  C   C196      1.0  0.80341  0.74138  0.36037  1.0000
  C   C197      1.0  0.82877  0.75833  0.36016  1.0000
  C   C198      1.0  0.82171  0.78398  0.35731  1.0000
  H   H70       1.0  0.80779  0.72276  0.36402  1.0000
  H   H71       1.0  0.83977  0.79645  0.35445  1.0000
  H   H72       1.0  0.74303  0.78116  0.35610  1.0000
  C   C199      1.0  0.29007  0.71466  0.32099  1.0000
  C   C200      1.0  0.26561  0.73239  0.32170  1.0000
  C   C201      1.0  0.27179  0.75805  0.32046  1.0000
  C   C202      1.0  0.30323  0.76626  0.32120  1.0000
  C   C203      1.0  0.32853  0.74926  0.32097  1.0000
  C   C204      1.0  0.32139  0.72362  0.32298  1.0000
  H   H73       1.0  0.30766  0.78488  0.31797  1.0000
  H   H74       1.0  0.33941  0.71111  0.32539  1.0000
  H   H75       1.0  0.24272  0.72663  0.32500  1.0000
  C   C205      1.0  0.71779  0.29296  0.32381  1.0000
  C   C206      1.0  0.74232  0.27529  0.32361  1.0000
  C   C207      1.0  0.73623  0.24961  0.32183  1.0000
  C   C208      1.0  0.70481  0.24134  0.32255  1.0000
  C   C209      1.0  0.67945  0.25829  0.32285  1.0000
  C   C210      1.0  0.68651  0.28394  0.32570  1.0000
  H   H76       1.0  0.70043  0.22272  0.31898  1.0000
  H   H77       1.0  0.66845  0.29641  0.32862  1.0000
  H   H78       1.0  0.76519  0.28112  0.32679  1.0000
  C   C211      1.0  0.99935  0.27292  0.33518  1.0000
  C   C212      1.0  0.99101  0.29808  0.32527  1.0000
  C   C213      1.0  0.01358  0.31732  0.33027  1.0000
  C   C214      1.0  0.04555  0.31064  0.34205  1.0000
  C   C215      1.0  0.05491  0.28556  0.34995  1.0000
  C   C216      1.0  0.03136  0.26709  0.34778  1.0000
  H   H79       1.0  0.06229  0.32422  0.34430  1.0000
  H   H80       1.0  0.03780  0.24884  0.35070  1.0000
  H   H81       1.0  0.96771  0.30251  0.31809  1.0000
  C   C217      1.0  0.00920  0.73513  0.33435  1.0000
  C   C218      1.0  0.01779  0.70999  0.32580  1.0000
  C   C219      1.0  0.99543  0.69060  0.33117  1.0000
  C   C220      1.0  0.96335  0.69718  0.34198  1.0000
  C   C221      1.0  0.95374  0.72223  0.34901  1.0000
  C   C222      1.0  0.97712  0.74083  0.34640  1.0000
  H   H82       1.0  0.94669  0.68355  0.34445  1.0000
  H   H83       1.0  0.97054  0.75905  0.34865  1.0000
  H   H84       1.0  0.04116  0.70573  0.31928  1.0000
  C   C223      1.0  0.50892  0.77292  0.34791  1.0000
  C   C224      1.0  0.51724  0.79809  0.35781  1.0000
  C   C225      1.0  0.49467  0.81732  0.35281  1.0000
  C   C226      1.0  0.46270  0.81064  0.34101  1.0000
  C   C227      1.0  0.45335  0.78556  0.33310  1.0000
  C   C228      1.0  0.47690  0.76709  0.33529  1.0000
  H   H85       1.0  0.44595  0.82422  0.33875  1.0000
  H   H86       1.0  0.47047  0.74884  0.33237  1.0000
  H   H87       1.0  0.54054  0.80252  0.36506  1.0000
  C   C229      1.0  0.49902  0.23515  0.34897  1.0000
  C   C230      1.0  0.49041  0.21001  0.35746  1.0000
  C   C231      1.0  0.51276  0.19060  0.35206  1.0000
  C   C232      1.0  0.54484  0.19718  0.34128  1.0000
  C   C233      1.0  0.55446  0.22222  0.33427  1.0000
  C   C234      1.0  0.53110  0.24083  0.33699  1.0000
  H   H88       1.0  0.56149  0.18354  0.33876  1.0000
  H   H89       1.0  0.53770  0.25904  0.33469  1.0000
  H   H90       1.0  0.46703  0.20576  0.36398  1.0000
  C   C235      1.0  0.48690  0.02597  0.36180  1.0000
  C   C236      1.0  0.52305  0.98186  0.35303  1.0000
  N   N55       1.0  0.53188  0.00163  0.40366  1.0000
  C   C237      1.0  0.51557  0.02320  0.41040  1.0000
  C   C238      1.0  0.52684  0.03915  0.46730  1.0000
  N   N56       1.0  0.53696  0.05314  0.51768  1.0000
  N   N57       1.0  0.03020  0.50595  0.37124  1.0000
  C   C239      1.0  0.01391  0.48437  0.37712  1.0000
  H   H91       1.0  0.02238  0.47056  0.41724  1.0000
  N   N58       1.0  0.32888  0.05691  0.38630  1.0000
  C   C240      1.0  0.36046  0.05261  0.39149  1.0000
  H   H92       1.0  0.36903  0.04189  0.44244  1.0000
  N   N59       1.0  0.67670  0.92372  0.41126  1.0000
  C   C241      1.0  0.64510  0.92541  0.42058  1.0000
  H   H93       1.0  0.63420  0.91464  0.46765  1.0000
  C   C242      1.0  0.19306  0.57222  0.35843  1.0000
  C   C243      1.0  0.12721  0.56571  0.34943  1.0000
  N   N60       1.0  0.14104  0.58073  0.41119  1.0000
  C   C244      1.0  0.17248  0.58416  0.41999  1.0000
  C   C245      1.0  0.18146  0.59900  0.48393  1.0000
  N   N61       1.0  0.18940  0.61215  0.54014  1.0000
  C   C246      1.0  0.81415  0.43644  0.33346  1.0000
  C   C247      1.0  0.88033  0.44061  0.32230  1.0000
  N   N62       1.0  0.86323  0.45363  0.38371  1.0000
  C   C248      1.0  0.83122  0.45269  0.39072  1.0000
  C   C249      1.0  0.81854  0.46487  0.45671  1.0000
  N   N63       1.0  0.80734  0.47559  0.51516  1.0000
  C   C250      1.0  0.47527  0.11770  0.36134  1.0000
  C   C251      1.0  0.50229  0.16547  0.35712  1.0000
  N   N64       1.0  0.47687  0.15992  0.40886  1.0000
  C   C252      1.0  0.46309  0.13735  0.41444  1.0000
  C   C253      1.0  0.43988  0.13545  0.47100  1.0000
  N   N65       1.0  0.41938  0.13383  0.52090  1.0000
  C   C254      1.0  0.53157  0.89021  0.36699  1.0000
  C   C255      1.0  0.50475  0.84247  0.35961  1.0000
  N   N66       1.0  0.52871  0.84818  0.41644  1.0000
  C   C256      1.0  0.54223  0.87079  0.42388  1.0000
  C   C257      1.0  0.56389  0.87290  0.48516  1.0000
  N   N67       1.0  0.58305  0.87468  0.53920  1.0000
  N   N68       1.0  0.00701  0.62304  0.37244  1.0000
  C   C258      1.0  0.99296  0.64564  0.37583  1.0000
  H   H94       1.0  0.97431  0.64820  0.41811  1.0000
  N   N69       1.0  0.00118  0.38466  0.37170  1.0000
  C   C259      1.0  0.01527  0.36209  0.37642  1.0000
  H   H95       1.0  0.03272  0.35930  0.42249  1.0000
  C   C260      1.0  0.53585  0.51057  0.35028  1.0000
  C   C261      1.0  0.47135  0.49708  0.34475  1.0000
  N   N70       1.0  0.49306  0.48411  0.39280  1.0000
  C   C262      1.0  0.52418  0.48971  0.39826  1.0000
  C   C263      1.0  0.54057  0.47606  0.45286  1.0000
  N   N71       1.0  0.55490  0.46395  0.50126  1.0000
  N   N72       1.0  0.99434  0.02360  0.38016  1.0000
  C   C264      1.0  0.02549  0.01806  0.38444  1.0000
  H   H96       1.0  0.03989  0.02870  0.42349  1.0000
  N   N73       1.0  0.41444  0.41325  0.38667  1.0000
  C   C265      1.0  0.41195  0.38829  0.39278  1.0000
  H   H97       1.0  0.42686  0.37897  0.43460  1.0000
  N   N74       1.0  0.59283  0.59504  0.38697  1.0000
  C   C266      1.0  0.59548  0.62001  0.39215  1.0000
  H   H98       1.0  0.58052  0.62951  0.43332  1.0000
  C   C267      1.0  0.11272  0.92789  0.34766  1.0000
  C   C268      1.0  0.12018  0.87601  0.33895  1.0000
  N   N75       1.0  0.13910  0.89056  0.39045  1.0000
  C   C269      1.0  0.13659  0.91554  0.39741  1.0000
  C   C270      1.0  0.15554  0.92612  0.45420  1.0000
  N   N76       1.0  0.17233  0.93538  0.50441  1.0000
  C   C271      1.0  0.89642  0.08015  0.34630  1.0000
  C   C272      1.0  0.88859  0.13204  0.33925  1.0000
  N   N77       1.0  0.86966  0.11727  0.38984  1.0000
  C   C273      1.0  0.87233  0.09228  0.39599  1.0000
  C   C274      1.0  0.85330  0.08149  0.45203  1.0000
  N   N78       1.0  0.83641  0.07205  0.50154  1.0000
  C   C275      1.0  0.30727  0.54969  0.35424  1.0000
  C   C276      1.0  0.35629  0.51442  0.34392  1.0000
  N   N79       1.0  0.35844  0.53498  0.39621  1.0000
  C   C277      1.0  0.33567  0.55247  0.40399  1.0000
  C   C278      1.0  0.34125  0.57013  0.46120  1.0000
  N   N80       1.0  0.34623  0.58569  0.51174  1.0000
  C   C279      1.0  0.69977  0.45804  0.35814  1.0000
  C   C280      1.0  0.65112  0.49367  0.34850  1.0000
  N   N81       1.0  0.64885  0.47313  0.40083  1.0000
  C   C281      1.0  0.67144  0.45548  0.40837  1.0000
  C   C282      1.0  0.66571  0.43793  0.46588  1.0000
  N   N82       1.0  0.66053  0.42246  0.51664  1.0000
  N   N83       1.0  0.20327  0.02888  0.38018  1.0000
  C   C283      1.0  0.18054  0.01126  0.38638  1.0000
  H   H99       1.0  0.18410  0.99650  0.42802  1.0000
  N   N84       1.0  0.80612  0.97885  0.37648  1.0000
  C   C284      1.0  0.82863  0.99663  0.38241  1.0000
  H   H100      1.0  0.82503  0.01133  0.42430  1.0000
  C   C285      1.0  0.22474  0.18862  0.36309  1.0000
  C   C286      1.0  0.23484  0.13704  0.35304  1.0000
  N   N85       1.0  0.25317  0.15208  0.40406  1.0000
  C   C287      1.0  0.24934  0.17688  0.41204  1.0000
  C   C288      1.0  0.26825  0.18758  0.46855  1.0000
  N   N86       1.0  0.28536  0.19644  0.51878  1.0000
  C   C289      1.0  0.78397  0.81906  0.35932  1.0000
  C   C290      1.0  0.77388  0.87065  0.34742  1.0000
  N   N87       1.0  0.75597  0.85577  0.40035  1.0000
  C   C291      1.0  0.75975  0.83098  0.40915  1.0000
  C   C292      1.0  0.74129  0.82048  0.46730  1.0000
  N   N88       1.0  0.72459  0.81178  0.51904  1.0000
  N   N89       1.0  0.30208  0.67340  0.37017  1.0000
  C   C293      1.0  0.29838  0.64850  0.37659  1.0000
  H   H101      1.0  0.31296  0.63868  0.41788  1.0000
  N   N90       1.0  0.70600  0.33405  0.37563  1.0000
  C   C294      1.0  0.70972  0.35893  0.38304  1.0000
  H   H102      1.0  0.69533  0.36860  0.42533  1.0000
  C   C295      1.0  0.26172  0.27509  0.36824  1.0000
  C   C296      1.0  0.31550  0.30462  0.36111  1.0000
  N   N91       1.0  0.30970  0.28938  0.43182  1.0000
  C   C297      1.0  0.28374  0.27509  0.43979  1.0000
  C   C298      1.0  0.28108  0.26214  0.51310  1.0000
  N   N92       1.0  0.27864  0.25111  0.57866  1.0000
  C   C299      1.0  0.74666  0.73266  0.36697  1.0000
  C   C300      1.0  0.69275  0.70320  0.35982  1.0000
  N   N93       1.0  0.69857  0.71852  0.43032  1.0000
  C   C301      1.0  0.72457  0.73276  0.43834  1.0000
  C   C302      1.0  0.72720  0.74578  0.51149  1.0000
  N   N94       1.0  0.72960  0.75686  0.57696  1.0000
  N   N95       1.0  0.24097  0.79052  0.38532  1.0000
  C   C303      1.0  0.21551  0.80569  0.39071  1.0000
  H   H103      1.0  0.21181  0.81580  0.44778  1.0000
  N   N96       1.0  0.76716  0.21712  0.38634  1.0000
  C   C304      1.0  0.79269  0.20203  0.39176  1.0000
  H   H104      1.0  0.79638  0.19186  0.44869  1.0000
  C   C305      1.0  0.42834  0.28992  0.36795  1.0000
  C   C306      1.0  0.47605  0.25420  0.35450  1.0000
  N   N97       1.0  0.45261  0.25231  0.41617  1.0000
  C   C307      1.0  0.42913  0.26905  0.42612  1.0000
  C   C308      1.0  0.40927  0.26485  0.49089  1.0000
  N   N98       1.0  0.39168  0.26111  0.54788  1.0000
  C   C309      1.0  0.57996  0.71837  0.36563  1.0000
  C   C310      1.0  0.53208  0.75398  0.35286  1.0000
  N   N99       1.0  0.55564  0.75593  0.41413  1.0000
  C   C311      1.0  0.57923  0.73926  0.42370  1.0000
  C   C312      1.0  0.59917  0.74351  0.48822  1.0000
  N   N100      1.0  0.61683  0.74729  0.54499  1.0000
  N   N101      1.0  0.05618  0.79194  0.37638  1.0000
  C   C313      1.0  0.03232  0.77541  0.38423  1.0000
  H   H105      1.0  0.01574  0.77803  0.43302  1.0000
  N   N102      1.0  0.95213  0.21626  0.37813  1.0000
  C   C314      1.0  0.97603  0.23277  0.38577  1.0000
  H   H106      1.0  0.99266  0.23011  0.43438  1.0000
  C   C315      1.0  0.14810  0.25820  0.36432  1.0000
  C   C316      1.0  0.08693  0.27815  0.35767  1.0000
  N   N103      1.0  0.09429  0.25832  0.40987  1.0000
  C   C317      1.0  0.12328  0.24805  0.41654  1.0000
  C   C318      1.0  0.12611  0.23005  0.47391  1.0000
  N   N104      1.0  0.12847  0.21413  0.52457  1.0000
  C   C319      1.0  0.86040  0.74936  0.36282  1.0000
  C   C320      1.0  0.92165  0.72952  0.35663  1.0000
  N   N105      1.0  0.91420  0.74939  0.40853  1.0000
  C   C321      1.0  0.88517  0.75959  0.41502  1.0000
  C   C322      1.0  0.88227  0.77766  0.47213  1.0000
  N   N106      1.0  0.87984  0.79362  0.52257  1.0000
  N   N107      1.0  0.36748  0.77830  0.37005  1.0000
  C   C323      1.0  0.39647  0.78876  0.37488  1.0000
  H   H107      1.0  0.40009  0.80323  0.41781  1.0000
  N   N108      1.0  0.64042  0.22915  0.37121  1.0000
  C   C324      1.0  0.61139  0.21875  0.37583  1.0000
  H   H108      1.0  0.60770  0.20423  0.41849  1.0000
