data_image0
_chemical_formula_structural       C7H3NH2NC7H3NH2NC7H3NH2NC7H3NH2NC7H3NH2NC7H3NH2NC2H2C3H2NC2H2C3H2NC2H2C3H2NC2H2C3H2NC2H2C3H2NC2H2C3H2NC7H3NH2NC7H3NH2NC7H3NH2NC7H3NH2NC7H3NH2NC7H3NH2NC6H3C3H3C6H3C3H3C6H3C3H3C6H3C3H3C6H3C3H3C6H3C3H3C6H3C3H3C6H3C3H3C6H3C3H3C6H3C3H3C6H3C3H3C6H3C3H3C2H2C3H2NC2H2C3H2NC2H2C3H2NC2H2C3H2NC2H2C3H2NC2H2C3H2NC7H3NH2NC7H3NH2NC7H3NH2NC7H3NH2NC7H3NH2NC7H3NH2NC2H2C3H2NC2H2C3H2NC2H2C3H2NC2H2C3H2NC2H2C3H2NC2H2C3H2N
_chemical_formula_sum              "C324 H234 N54"
_cell_length_a       79.5421
_cell_length_b       79.542
_cell_length_c       14.9902
_cell_angle_alpha    90
_cell_angle_beta     90
_cell_angle_gamma    120

_space_group_name_H-M_alt    "P 1"
_space_group_IT_number       1

loop_
  _space_group_symop_operation_xyz
  'x, y, z'

loop_
  _atom_site_type_symbol
  _atom_site_label
  _atom_site_symmetry_multiplicity
  _atom_site_fract_x
  _atom_site_fract_y
  _atom_site_fract_z
  _atom_site_occupancy
  C   C1        1.0  0.27199  0.45125  0.32047  1.0000
  C   C2        1.0  0.26342  0.45222  0.23980  1.0000
  C   C3        1.0  0.24560  0.45223  0.23807  1.0000
  C   C4        1.0  0.23581  0.45048  0.32036  1.0000
  C   C5        1.0  0.21818  0.45092  0.32587  1.0000
  C   C6        1.0  0.20089  0.43633  0.28594  1.0000
  C   C7        1.0  0.18372  0.43735  0.28953  1.0000
  H   H1        1.0  0.20076  0.42502  0.25278  1.0000
  H   H2        1.0  0.17153  0.42683  0.25833  1.0000
  H   H3        1.0  0.27072  0.45372  0.18133  1.0000
  N   N1        1.0  0.23900  0.45464  0.15796  1.0000
  H   H4        1.0  0.24621  0.45625  0.10311  1.0000
  H   H5        1.0  0.22752  0.45592  0.15315  1.0000
  N   N2        1.0  0.28912  0.45212  0.31708  1.0000
  C   C8        1.0  0.56379  0.83511  0.32027  1.0000
  C   C9        1.0  0.56281  0.82556  0.23962  1.0000
  C   C10       1.0  0.56280  0.80772  0.23795  1.0000
  C   C11       1.0  0.56457  0.79971  0.32026  1.0000
  C   C12       1.0  0.56412  0.78163  0.32583  1.0000
  C   C13       1.0  0.57870  0.77892  0.28588  1.0000
  C   C14       1.0  0.57767  0.76073  0.28950  1.0000
  H   H6        1.0  0.59001  0.79009  0.25268  1.0000
  H   H7        1.0  0.58819  0.75905  0.25827  1.0000
  H   H8        1.0  0.56129  0.83134  0.18114  1.0000
  N   N3        1.0  0.56039  0.79870  0.15788  1.0000
  H   H9        1.0  0.55876  0.80429  0.10301  1.0000
  H   H10       1.0  0.55911  0.78595  0.15309  1.0000
  N   N4        1.0  0.56290  0.85136  0.31683  1.0000
  C   C15       1.0  0.17990  0.74303  0.32039  1.0000
  C   C16       1.0  0.18945  0.75159  0.23972  1.0000
  C   C17       1.0  0.20729  0.76941  0.23801  1.0000
  C   C18       1.0  0.21531  0.77920  0.32030  1.0000
  C   C19       1.0  0.23339  0.79683  0.32583  1.0000
  C   C20       1.0  0.23611  0.81412  0.28581  1.0000
  C   C21       1.0  0.25430  0.83128  0.28943  1.0000
  H   H11       1.0  0.22494  0.81425  0.25258  1.0000
  H   H12       1.0  0.25598  0.84347  0.25816  1.0000
  H   H13       1.0  0.18366  0.74428  0.18126  1.0000
  N   N5        1.0  0.21631  0.77600  0.15792  1.0000
  H   H14       1.0  0.21072  0.76879  0.10307  1.0000
  H   H15       1.0  0.22906  0.78748  0.15312  1.0000
  N   N6        1.0  0.16365  0.72590  0.31700  1.0000
  C   C22       1.0  0.73846  0.56836  0.32022  1.0000
  C   C23       1.0  0.74703  0.56737  0.23958  1.0000
  C   C24       1.0  0.76485  0.56735  0.23791  1.0000
  C   C25       1.0  0.77464  0.56914  0.32022  1.0000
  C   C26       1.0  0.79227  0.56869  0.32581  1.0000
  C   C27       1.0  0.80956  0.58324  0.28576  1.0000
  C   C28       1.0  0.82672  0.58221  0.28940  1.0000
  H   H16       1.0  0.80970  0.59454  0.25248  1.0000
  H   H17       1.0  0.83891  0.59271  0.25810  1.0000
  H   H18       1.0  0.73972  0.56584  0.18110  1.0000
  N   N7        1.0  0.77145  0.56492  0.15785  1.0000
  H   H19       1.0  0.76424  0.56329  0.10299  1.0000
  H   H20       1.0  0.78292  0.56364  0.15309  1.0000
  N   N8        1.0  0.72133  0.56747  0.31678  1.0000
  C   C29       1.0  0.44664  0.18446  0.32021  1.0000
  C   C30       1.0  0.44764  0.19402  0.23958  1.0000
  C   C31       1.0  0.44765  0.21186  0.23794  1.0000
  C   C32       1.0  0.44586  0.21985  0.32025  1.0000
  C   C33       1.0  0.44631  0.23794  0.32585  1.0000
  C   C34       1.0  0.43176  0.24067  0.28579  1.0000
  C   C35       1.0  0.43279  0.25887  0.28942  1.0000
  H   H21       1.0  0.42046  0.22951  0.25248  1.0000
  H   H22       1.0  0.42230  0.26055  0.25811  1.0000
  H   H23       1.0  0.44917  0.18825  0.18110  1.0000
  N   N9        1.0  0.45009  0.22089  0.15788  1.0000
  H   H24       1.0  0.45172  0.21531  0.10302  1.0000
  H   H25       1.0  0.45137  0.23365  0.15313  1.0000
  N   N10       1.0  0.44754  0.16821  0.31677  1.0000
  C   C36       1.0  0.83056  0.27654  0.32021  1.0000
  C   C37       1.0  0.82099  0.26798  0.23958  1.0000
  C   C38       1.0  0.80315  0.25015  0.23794  1.0000
  C   C39       1.0  0.79516  0.24036  0.32025  1.0000
  C   C40       1.0  0.77707  0.22273  0.32585  1.0000
  C   C41       1.0  0.77434  0.20544  0.28577  1.0000
  C   C42       1.0  0.75614  0.18829  0.28941  1.0000
  H   H26       1.0  0.78550  0.20531  0.25246  1.0000
  H   H27       1.0  0.75445  0.17610  0.25808  1.0000
  H   H28       1.0  0.82676  0.27528  0.18110  1.0000
  N   N11       1.0  0.79412  0.24355  0.15788  1.0000
  H   H29       1.0  0.79969  0.25077  0.10302  1.0000
  H   H30       1.0  0.78136  0.23208  0.15313  1.0000
  N   N12       1.0  0.84680  0.29368  0.31677  1.0000
  C   C43       1.0  0.13784  0.55929  0.26398  1.0000
  C   C44       1.0  0.13731  0.54139  0.26246  1.0000
  H   H31       1.0  0.13830  0.56581  0.20441  1.0000
  H   H32       1.0  0.13747  0.53537  0.20236  1.0000
  C   C45       1.0  0.13620  0.62098  0.33648  1.0000
  C   C46       1.0  0.12084  0.60362  0.30061  1.0000
  C   C47       1.0  0.12142  0.58626  0.30352  1.0000
  H   H33       1.0  0.10905  0.60349  0.27246  1.0000
  H   H34       1.0  0.10992  0.57386  0.27841  1.0000
  N   N13       1.0  0.13601  0.63762  0.33577  1.0000
  C   C48       1.0  0.45573  0.59292  0.26397  1.0000
  C   C49       1.0  0.47363  0.61030  0.26246  1.0000
  H   H35       1.0  0.44920  0.58685  0.20440  1.0000
  H   H36       1.0  0.47964  0.61646  0.20236  1.0000
  C   C50       1.0  0.39404  0.52959  0.33644  1.0000
  C   C51       1.0  0.41139  0.53158  0.30057  1.0000
  C   C52       1.0  0.42875  0.54952  0.30348  1.0000
  H   H37       1.0  0.41153  0.51993  0.27241  1.0000
  H   H38       1.0  0.44115  0.55042  0.27837  1.0000
  N   N14       1.0  0.37740  0.51276  0.33573  1.0000
  C   C53       1.0  0.42211  0.87720  0.26395  1.0000
  C   C54       1.0  0.40473  0.87773  0.26243  1.0000
  H   H39       1.0  0.42818  0.87674  0.20439  1.0000
  H   H40       1.0  0.39857  0.87758  0.20232  1.0000
  C   C55       1.0  0.48543  0.87882  0.33649  1.0000
  C   C56       1.0  0.48345  0.89420  0.30066  1.0000
  C   C57       1.0  0.46551  0.89362  0.30355  1.0000
  H   H41       1.0  0.49509  0.90598  0.27253  1.0000
  H   H42       1.0  0.46461  0.90512  0.27846  1.0000
  N   N15       1.0  0.50226  0.87901  0.33579  1.0000
  C   C58       1.0  0.87263  0.46032  0.26396  1.0000
  C   C59       1.0  0.87316  0.47822  0.26244  1.0000
  H   H43       1.0  0.87218  0.45379  0.20439  1.0000
  H   H44       1.0  0.87301  0.48423  0.20233  1.0000
  C   C60       1.0  0.87426  0.39862  0.33649  1.0000
  C   C61       1.0  0.88963  0.41598  0.30066  1.0000
  C   C62       1.0  0.88906  0.43334  0.30356  1.0000
  H   H45       1.0  0.90142  0.41611  0.27254  1.0000
  H   H46       1.0  0.90055  0.44574  0.27848  1.0000
  N   N16       1.0  0.87445  0.38198  0.33577  1.0000
  C   C63       1.0  0.55468  0.42671  0.26383  1.0000
  C   C64       1.0  0.53679  0.40933  0.26223  1.0000
  H   H47       1.0  0.56122  0.43280  0.20429  1.0000
  H   H48       1.0  0.53079  0.40318  0.20209  1.0000
  C   C65       1.0  0.61638  0.49001  0.33656  1.0000
  C   C66       1.0  0.59903  0.48804  0.30076  1.0000
  C   C67       1.0  0.58166  0.47010  0.30361  1.0000
  H   H49       1.0  0.59889  0.49969  0.27267  1.0000
  H   H50       1.0  0.56927  0.46921  0.27853  1.0000
  N   N17       1.0  0.63302  0.50683  0.33586  1.0000
  C   C68       1.0  0.58830  0.14232  0.26382  1.0000
  C   C69       1.0  0.60568  0.14181  0.26222  1.0000
  H   H51       1.0  0.58221  0.14277  0.20429  1.0000
  H   H52       1.0  0.61183  0.14196  0.20208  1.0000
  C   C70       1.0  0.52500  0.14073  0.33655  1.0000
  C   C71       1.0  0.52697  0.12534  0.30075  1.0000
  C   C72       1.0  0.54491  0.12591  0.30360  1.0000
  H   H53       1.0  0.51532  0.11356  0.27266  1.0000
  H   H54       1.0  0.54580  0.11441  0.27853  1.0000
  N   N18       1.0  0.50818  0.14055  0.33585  1.0000
  C   C73       1.0  0.05913  0.41217  0.30525  1.0000
  C   C74       1.0  0.04748  0.41072  0.23155  1.0000
  C   C75       1.0  0.02701  0.39872  0.23317  1.0000
  C   C76       1.0  0.01811  0.38777  0.31184  1.0000
  C   C77       1.0  0.99771  0.37820  0.32484  1.0000
  C   C78       1.0  0.98496  0.36075  0.28001  1.0000
  C   C79       1.0  0.96469  0.35279  0.28629  1.0000
  H   H55       1.0  0.99036  0.35417  0.23976  1.0000
  H   H56       1.0  0.95579  0.34060  0.25036  1.0000
  H   H57       1.0  0.05396  0.41936  0.17707  1.0000
  N   N19       1.0  0.01672  0.39896  0.16101  1.0000
  H   H58       1.0  0.02317  0.40677  0.10861  1.0000
  H   H59       1.0  0.00265  0.39141  0.15901  1.0000
  N   N20       1.0  0.07749  0.42639  0.30353  1.0000
  C   C80       1.0  0.60284  0.66132  0.30527  1.0000
  C   C81       1.0  0.60429  0.65111  0.23156  1.0000
  C   C82       1.0  0.61629  0.64265  0.23317  1.0000
  C   C83       1.0  0.62724  0.64470  0.31183  1.0000
  C   C84       1.0  0.63681  0.63387  0.32483  1.0000
  C   C85       1.0  0.65426  0.63857  0.27999  1.0000
  C   C86       1.0  0.66222  0.62626  0.28627  1.0000
  H   H60       1.0  0.66084  0.65055  0.23974  1.0000
  H   H61       1.0  0.67440  0.62954  0.25034  1.0000
  H   H62       1.0  0.59564  0.64895  0.17708  1.0000
  N   N21       1.0  0.61605  0.63212  0.16101  1.0000
  H   H63       1.0  0.60824  0.63077  0.10861  1.0000
  H   H64       1.0  0.62360  0.62560  0.15900  1.0000
  N   N22       1.0  0.58862  0.66546  0.30356  1.0000
  C   C87       1.0  0.35368  0.95588  0.30524  1.0000
  C   C88       1.0  0.36390  0.96754  0.23155  1.0000
  C   C89       1.0  0.37236  0.98800  0.23317  1.0000
  C   C90       1.0  0.37031  0.99691  0.31183  1.0000
  C   C91       1.0  0.38114  0.01731  0.32484  1.0000
  C   C92       1.0  0.37644  0.03005  0.27998  1.0000
  C   C93       1.0  0.38875  0.05032  0.28627  1.0000
  H   H65       1.0  0.36446  0.02466  0.23970  1.0000
  H   H66       1.0  0.38547  0.05922  0.25032  1.0000
  H   H67       1.0  0.36606  0.96106  0.17708  1.0000
  N   N23       1.0  0.38289  0.99829  0.16102  1.0000
  H   H68       1.0  0.38426  0.99184  0.10864  1.0000
  H   H69       1.0  0.38942  0.01236  0.15902  1.0000
  N   N24       1.0  0.34954  0.93753  0.30353  1.0000
  C   C94       1.0  0.95131  0.60742  0.30524  1.0000
  C   C95       1.0  0.96296  0.60886  0.23152  1.0000
  C   C96       1.0  0.98342  0.62086  0.23312  1.0000
  C   C97       1.0  0.99233  0.63181  0.31180  1.0000
  C   C98       1.0  0.01273  0.64138  0.32478  1.0000
  C   C99       1.0  0.02548  0.65883  0.27997  1.0000
  C   C100      1.0  0.04575  0.66679  0.28625  1.0000
  H   H70       1.0  0.02008  0.66541  0.23975  1.0000
  H   H71       1.0  0.05465  0.67897  0.25034  1.0000
  H   H72       1.0  0.95647  0.60023  0.17703  1.0000
  N   N25       1.0  0.99371  0.62063  0.16094  1.0000
  H   H73       1.0  0.98725  0.61282  0.10854  1.0000
  H   H74       1.0  0.00778  0.62817  0.15893  1.0000
  N   N26       1.0  0.93295  0.59320  0.30352  1.0000
  C   C101      1.0  0.40761  0.35827  0.30531  1.0000
  C   C102      1.0  0.40616  0.36846  0.23158  1.0000
  C   C103      1.0  0.39416  0.37693  0.23317  1.0000
  C   C104      1.0  0.38322  0.37490  0.31185  1.0000
  C   C105      1.0  0.37365  0.38573  0.32482  1.0000
  C   C106      1.0  0.35619  0.38102  0.28001  1.0000
  C   C107      1.0  0.34823  0.39333  0.28627  1.0000
  H   H75       1.0  0.34961  0.36904  0.23979  1.0000
  H   H76       1.0  0.33604  0.39004  0.25037  1.0000
  H   H77       1.0  0.41479  0.37061  0.17708  1.0000
  N   N27       1.0  0.39439  0.38745  0.16098  1.0000
  H   H78       1.0  0.40220  0.38880  0.10858  1.0000
  H   H79       1.0  0.38685  0.39397  0.15896  1.0000
  N   N28       1.0  0.42182  0.35412  0.30358  1.0000
  C   C108      1.0  0.65675  0.06370  0.30531  1.0000
  C   C109      1.0  0.64655  0.05205  0.23158  1.0000
  C   C110      1.0  0.63808  0.03158  0.23319  1.0000
  C   C111      1.0  0.64012  0.02267  0.31187  1.0000
  C   C112      1.0  0.62929  0.00227  0.32486  1.0000
  C   C113      1.0  0.63399  0.98953  0.28004  1.0000
  C   C114      1.0  0.62169  0.96926  0.28632  1.0000
  H   H80       1.0  0.64598  0.99493  0.23981  1.0000
  H   H81       1.0  0.62498  0.96036  0.25041  1.0000
  H   H82       1.0  0.64440  0.05853  0.17708  1.0000
  N   N29       1.0  0.62756  0.02129  0.16101  1.0000
  H   H83       1.0  0.62621  0.02775  0.10860  1.0000
  H   H84       1.0  0.62104  0.00723  0.15900  1.0000
  N   N30       1.0  0.66089  0.08206  0.30357  1.0000
  C   C115      1.0  0.14591  0.46649  0.33053  1.0000
  C   C116      1.0  0.14482  0.48352  0.31618  1.0000
  C   C117      1.0  0.12683  0.48295  0.31076  1.0000
  C   C118      1.0  0.10959  0.46489  0.31902  1.0000
  C   C119      1.0  0.11005  0.44753  0.33356  1.0000
  C   C120      1.0  0.12832  0.44860  0.33988  1.0000
  H   H85       1.0  0.09651  0.46448  0.31643  1.0000
  H   H86       1.0  0.12879  0.43615  0.35155  1.0000
  H   H87       1.0  0.15735  0.49663  0.30907  1.0000
  C   C121      1.0  0.12589  0.49964  0.29672  1.0000
  C   C122      1.0  0.09296  0.43003  0.34626  1.0000
  C   C123      1.0  0.16413  0.46808  0.33621  1.0000
  H   H88       1.0  0.17568  0.48131  0.34139  1.0000
  H   H89       1.0  0.09258  0.42067  0.39131  1.0000
  H   H90       1.0  0.11660  0.49942  0.25159  1.0000
  C   C124      1.0  0.54853  0.69378  0.33066  1.0000
  C   C125      1.0  0.53149  0.67566  0.31628  1.0000
  C   C126      1.0  0.53206  0.65824  0.31079  1.0000
  C   C127      1.0  0.55012  0.65907  0.31903  1.0000
  C   C128      1.0  0.56748  0.67688  0.33361  1.0000
  C   C129      1.0  0.56642  0.69408  0.33999  1.0000
  H   H91       1.0  0.55053  0.64639  0.31640  1.0000
  H   H92       1.0  0.57887  0.70700  0.35169  1.0000
  H   H93       1.0  0.51838  0.67508  0.30918  1.0000
  C   C130      1.0  0.51537  0.64062  0.29672  1.0000
  C   C131      1.0  0.58498  0.67729  0.34631  1.0000
  C   C132      1.0  0.54694  0.71042  0.33641  1.0000
  H   H94       1.0  0.53371  0.70873  0.34176  1.0000
  H   H95       1.0  0.59434  0.68626  0.39136  1.0000
  H   H96       1.0  0.51560  0.63156  0.25156  1.0000
  C   C133      1.0  0.32123  0.86910  0.33080  1.0000
  C   C134      1.0  0.33935  0.87019  0.31633  1.0000
  C   C135      1.0  0.35676  0.88818  0.31073  1.0000
  C   C136      1.0  0.35594  0.90542  0.31893  1.0000
  C   C137      1.0  0.33812  0.90496  0.33358  1.0000
  C   C138      1.0  0.32093  0.88669  0.34008  1.0000
  H   H97       1.0  0.36862  0.91851  0.31622  1.0000
  H   H98       1.0  0.30801  0.88623  0.35186  1.0000
  H   H99       1.0  0.33993  0.85766  0.30929  1.0000
  C   C139      1.0  0.37439  0.88912  0.29663  1.0000
  C   C140      1.0  0.33772  0.92206  0.34627  1.0000
  C   C141      1.0  0.30461  0.85088  0.33673  1.0000
  H   H100      1.0  0.30630  0.83935  0.34228  1.0000
  H   H101      1.0  0.32874  0.92244  0.39132  1.0000
  H   H102      1.0  0.38344  0.89840  0.25142  1.0000
  C   C142      1.0  0.86453  0.55309  0.33094  1.0000
  C   C143      1.0  0.86562  0.53606  0.31644  1.0000
  C   C144      1.0  0.88361  0.53664  0.31075  1.0000
  C   C145      1.0  0.90084  0.55470  0.31892  1.0000
  C   C146      1.0  0.90039  0.57206  0.33363  1.0000
  C   C147      1.0  0.88212  0.57099  0.34021  1.0000
  H   H103      1.0  0.91393  0.55511  0.31616  1.0000
  H   H104      1.0  0.88165  0.58344  0.35203  1.0000
  H   H105      1.0  0.85309  0.52295  0.30941  1.0000
  C   C148      1.0  0.88454  0.51995  0.29662  1.0000
  C   C149      1.0  0.91748  0.58956  0.34630  1.0000
  C   C150      1.0  0.84631  0.55150  0.33699  1.0000
  H   H106      1.0  0.83478  0.53827  0.34278  1.0000
  H   H107      1.0  0.91788  0.59891  0.39142  1.0000
  H   H108      1.0  0.89381  0.52018  0.25138  1.0000
  C   C151      1.0  0.46192  0.32579  0.33094  1.0000
  C   C152      1.0  0.47895  0.34390  0.31629  1.0000
  C   C153      1.0  0.47838  0.36132  0.31053  1.0000
  C   C154      1.0  0.46032  0.36050  0.31876  1.0000
  C   C155      1.0  0.44297  0.34270  0.33368  1.0000
  C   C156      1.0  0.44403  0.32550  0.34030  1.0000
  H   H109      1.0  0.45992  0.37318  0.31597  1.0000
  H   H110      1.0  0.43158  0.31259  0.35224  1.0000
  H   H111      1.0  0.49205  0.34447  0.30920  1.0000
  C   C157      1.0  0.49507  0.37892  0.29621  1.0000
  C   C158      1.0  0.42547  0.34230  0.34639  1.0000
  C   C159      1.0  0.46350  0.30917  0.33707  1.0000
  H   H112      1.0  0.47673  0.31086  0.34292  1.0000
  H   H113      1.0  0.41612  0.33335  0.39155  1.0000
  H   H114      1.0  0.49482  0.38799  0.25114  1.0000
  C   C160      1.0  0.68922  0.15048  0.33098  1.0000
  C   C161      1.0  0.67111  0.14940  0.31631  1.0000
  C   C162      1.0  0.65370  0.13142  0.31053  1.0000
  C   C163      1.0  0.65451  0.11417  0.31874  1.0000
  C   C164      1.0  0.67231  0.11462  0.33364  1.0000
  C   C165      1.0  0.68951  0.13289  0.34030  1.0000
  H   H115      1.0  0.64183  0.10109  0.31595  1.0000
  H   H116      1.0  0.70242  0.13335  0.35225  1.0000
  H   H117      1.0  0.67054  0.16194  0.30923  1.0000
  C   C166      1.0  0.63609  0.13050  0.29620  1.0000
  C   C167      1.0  0.67271  0.09752  0.34637  1.0000
  C   C168      1.0  0.70584  0.16869  0.33711  1.0000
  H   H118      1.0  0.70415  0.18022  0.34300  1.0000
  H   H119      1.0  0.68166  0.09713  0.39154  1.0000
  H   H120      1.0  0.62702  0.12118  0.25113  1.0000
  C   C169      1.0  0.45664  0.14541  0.35328  1.0000
  C   C170      1.0  0.47414  0.14490  0.35933  1.0000
  C   C171      1.0  0.47438  0.12738  0.34782  1.0000
  C   C172      1.0  0.45659  0.11020  0.33118  1.0000
  C   C173      1.0  0.43876  0.11010  0.32643  1.0000
  C   C174      1.0  0.43908  0.12793  0.33661  1.0000
  H   H121      1.0  0.45663  0.09743  0.32240  1.0000
  H   H122      1.0  0.42628  0.12811  0.33435  1.0000
  H   H123      1.0  0.48687  0.15745  0.37280  1.0000
  C   C175      1.0  0.49122  0.12629  0.35481  1.0000
  C   C176      1.0  0.42136  0.09292  0.31232  1.0000
  C   C177      1.0  0.45689  0.16272  0.36779  1.0000
  H   H124      1.0  0.46530  0.17144  0.41625  1.0000
  H   H125      1.0  0.41061  0.09316  0.27969  1.0000
  H   H126      1.0  0.48997  0.11366  0.37314  1.0000
  C   C178      1.0  0.68942  0.55837  0.35332  1.0000
  C   C179      1.0  0.67142  0.54087  0.35939  1.0000
  C   C180      1.0  0.65365  0.54063  0.34784  1.0000
  C   C181      1.0  0.65427  0.55842  0.33118  1.0000
  C   C182      1.0  0.67200  0.57625  0.32643  1.0000
  C   C183      1.0  0.68951  0.57594  0.33663  1.0000
  H   H127      1.0  0.64145  0.55837  0.32239  1.0000
  H   H128      1.0  0.70248  0.58873  0.33436  1.0000
  H   H129      1.0  0.67123  0.52814  0.37285  1.0000
  C   C184      1.0  0.63572  0.52379  0.35483  1.0000
  C   C185      1.0  0.67221  0.59365  0.31230  1.0000
  C   C186      1.0  0.70649  0.55812  0.36783  1.0000
  H   H130      1.0  0.70680  0.54972  0.41631  1.0000
  H   H131      1.0  0.68321  0.60441  0.27977  1.0000
  H   H132      1.0  0.62434  0.52504  0.37316  1.0000
  C   C187      1.0  0.86960  0.32559  0.35328  1.0000
  C   C188      1.0  0.87011  0.34359  0.35927  1.0000
  C   C189      1.0  0.88763  0.36135  0.34773  1.0000
  C   C190      1.0  0.90480  0.36074  0.33110  1.0000
  C   C191      1.0  0.90491  0.34301  0.32641  1.0000
  C   C192      1.0  0.88708  0.32550  0.33663  1.0000
  H   H133      1.0  0.91757  0.37355  0.32228  1.0000
  H   H134      1.0  0.88691  0.31253  0.33441  1.0000
  H   H135      1.0  0.85756  0.34378  0.37269  1.0000
  C   C193      1.0  0.88872  0.37929  0.35460  1.0000
  C   C194      1.0  0.92209  0.34280  0.31232  1.0000
  C   C195      1.0  0.85229  0.30852  0.36779  1.0000
  H   H136      1.0  0.84357  0.30821  0.41626  1.0000
  H   H137      1.0  0.92185  0.33179  0.27982  1.0000
  H   H138      1.0  0.90135  0.39067  0.37289  1.0000
  C   C196      1.0  0.55380  0.87416  0.35334  1.0000
  C   C197      1.0  0.53630  0.87467  0.35931  1.0000
  C   C198      1.0  0.53606  0.89219  0.34777  1.0000
  C   C199      1.0  0.55385  0.90937  0.33114  1.0000
  C   C200      1.0  0.57168  0.90947  0.32647  1.0000
  C   C201      1.0  0.57137  0.89164  0.33677  1.0000
  H   H139      1.0  0.55381  0.92213  0.32229  1.0000
  H   H140      1.0  0.58416  0.89147  0.33447  1.0000
  H   H141      1.0  0.52357  0.86212  0.37272  1.0000
  C   C202      1.0  0.51921  0.89328  0.35461  1.0000
  C   C203      1.0  0.58908  0.92665  0.31236  1.0000
  C   C204      1.0  0.55355  0.85685  0.36785  1.0000
  H   H142      1.0  0.54514  0.84813  0.41632  1.0000
  H   H143      1.0  0.59985  0.92641  0.27988  1.0000
  H   H144      1.0  0.52046  0.90591  0.37289  1.0000
  C   C205      1.0  0.32102  0.46120  0.35349  1.0000
  C   C206      1.0  0.33902  0.47870  0.35938  1.0000
  C   C207      1.0  0.35678  0.47895  0.34767  1.0000
  C   C208      1.0  0.35617  0.46117  0.33100  1.0000
  C   C209      1.0  0.33844  0.44333  0.32641  1.0000
  C   C210      1.0  0.32093  0.44364  0.33683  1.0000
  H   H145      1.0  0.36898  0.46122  0.32207  1.0000
  H   H146      1.0  0.30796  0.43084  0.33464  1.0000
  H   H147      1.0  0.33920  0.49143  0.37286  1.0000
  C   C211      1.0  0.37472  0.49580  0.35450  1.0000
  C   C212      1.0  0.33823  0.42594  0.31230  1.0000
  C   C213      1.0  0.30395  0.46143  0.36821  1.0000
  H   H148      1.0  0.30366  0.46986  0.41660  1.0000
  H   H149      1.0  0.32722  0.41516  0.27982  1.0000
  H   H150      1.0  0.38610  0.49456  0.37274  1.0000
  C   C214      1.0  0.14083  0.69400  0.35342  1.0000
  C   C215      1.0  0.14033  0.67600  0.35937  1.0000
  C   C216      1.0  0.12282  0.65823  0.34773  1.0000
  C   C217      1.0  0.10564  0.65884  0.33102  1.0000
  C   C218      1.0  0.10553  0.67657  0.32640  1.0000
  C   C219      1.0  0.12336  0.69408  0.33678  1.0000
  H   H151      1.0  0.09288  0.64603  0.32213  1.0000
  H   H152      1.0  0.12352  0.70705  0.33457  1.0000
  H   H153      1.0  0.15288  0.67581  0.37285  1.0000
  C   C220      1.0  0.12173  0.64029  0.35456  1.0000
  C   C221      1.0  0.08835  0.67678  0.31228  1.0000
  C   C222      1.0  0.15813  0.71106  0.36813  1.0000
  H   H154      1.0  0.16685  0.71136  0.41652  1.0000
  H   H155      1.0  0.08859  0.68779  0.27979  1.0000
  H   H156      1.0  0.10911  0.62891  0.37281  1.0000
  C   C223      1.0  0.24421  0.44891  0.40096  1.0000
  C   C224      1.0  0.26203  0.44928  0.40111  1.0000
  H   H157      1.0  0.23742  0.44758  0.46079  1.0000
  H   H158      1.0  0.26774  0.44819  0.46051  1.0000
  C   C225      1.0  0.18339  0.45292  0.33302  1.0000
  C   C226      1.0  0.20051  0.46708  0.37607  1.0000
  C   C227      1.0  0.21767  0.46613  0.37227  1.0000
  H   H159      1.0  0.20072  0.47833  0.40999  1.0000
  H   H160      1.0  0.22991  0.47686  0.40234  1.0000
  N   N31       1.0  0.16693  0.45350  0.33073  1.0000
  C   C228      1.0  0.56614  0.80968  0.40083  1.0000
  C   C229      1.0  0.56577  0.82714  0.40093  1.0000
  H   H161      1.0  0.56748  0.80424  0.46067  1.0000
  H   H162      1.0  0.56687  0.83395  0.46031  1.0000
  C   C230      1.0  0.56210  0.74484  0.33304  1.0000
  C   C231      1.0  0.54795  0.74781  0.37611  1.0000
  C   C232      1.0  0.54892  0.76593  0.37228  1.0000
  H   H163      1.0  0.53670  0.73678  0.41005  1.0000
  H   H164      1.0  0.53819  0.76745  0.40235  1.0000
  N   N32       1.0  0.56151  0.72778  0.33075  1.0000
  C   C233      1.0  0.20535  0.77082  0.40088  1.0000
  C   C234      1.0  0.18788  0.75299  0.40103  1.0000
  H   H165      1.0  0.21079  0.77760  0.46071  1.0000
  H   H166      1.0  0.18107  0.74728  0.46042  1.0000
  C   C235      1.0  0.27019  0.83161  0.33304  1.0000
  C   C236      1.0  0.26721  0.81449  0.37617  1.0000
  C   C237      1.0  0.24909  0.79734  0.37234  1.0000
  H   H167      1.0  0.27824  0.81428  0.41017  1.0000
  H   H168      1.0  0.24757  0.78510  0.40246  1.0000
  N   N33       1.0  0.28724  0.84808  0.33076  1.0000
  C   C238      1.0  0.76626  0.57073  0.40077  1.0000
  C   C239      1.0  0.74843  0.57036  0.40087  1.0000
  H   H169      1.0  0.77304  0.57208  0.46061  1.0000
  H   H170      1.0  0.74272  0.57147  0.46025  1.0000
  C   C240      1.0  0.82704  0.56665  0.33306  1.0000
  C   C241      1.0  0.80992  0.55252  0.37622  1.0000
  C   C242      1.0  0.79277  0.55349  0.37236  1.0000
  H   H171      1.0  0.80970  0.54128  0.41025  1.0000
  H   H172      1.0  0.78053  0.54278  0.40250  1.0000
  N   N34       1.0  0.84350  0.56605  0.33076  1.0000
  C   C243      1.0  0.44427  0.20987  0.40079  1.0000
  C   C244      1.0  0.44464  0.19241  0.40087  1.0000
  H   H173      1.0  0.44292  0.21530  0.46064  1.0000
  H   H174      1.0  0.44353  0.18559  0.46025  1.0000
  C   C245      1.0  0.44835  0.27474  0.33312  1.0000
  C   C246      1.0  0.46247  0.27175  0.37630  1.0000
  C   C247      1.0  0.46150  0.25363  0.37244  1.0000
  H   H175      1.0  0.47371  0.28277  0.41035  1.0000
  H   H176      1.0  0.47221  0.25209  0.40259  1.0000
  N   N35       1.0  0.44895  0.29180  0.33079  1.0000
  C   C248      1.0  0.80514  0.24875  0.40079  1.0000
  C   C249      1.0  0.82260  0.26658  0.40087  1.0000
  H   H177      1.0  0.79971  0.24197  0.46064  1.0000
  H   H178      1.0  0.82942  0.27229  0.46024  1.0000
  C   C250      1.0  0.74027  0.18797  0.33312  1.0000
  C   C251      1.0  0.74326  0.20508  0.37631  1.0000
  C   C252      1.0  0.76138  0.22223  0.37245  1.0000
  H   H179      1.0  0.73225  0.20531  0.41037  1.0000
  H   H180      1.0  0.76292  0.23447  0.40261  1.0000
  N   N36       1.0  0.72321  0.17151  0.33079  1.0000
  C   C253      1.0  0.13657  0.53182  0.34282  1.0000
  C   C254      1.0  0.13694  0.54080  0.42440  1.0000
  C   C255      1.0  0.13713  0.55872  0.42761  1.0000
  C   C256      1.0  0.13767  0.56811  0.34569  1.0000
  C   C257      1.0  0.13743  0.58585  0.34190  1.0000
  C   C258      1.0  0.15310  0.60333  0.37503  1.0000
  C   C259      1.0  0.15251  0.62073  0.37194  1.0000
  H   H181      1.0  0.16499  0.60349  0.40208  1.0000
  H   H182      1.0  0.16391  0.63316  0.39731  1.0000
  H   H183      1.0  0.13637  0.53380  0.48266  1.0000
  N   N37       1.0  0.13616  0.56583  0.50889  1.0000
  H   H184      1.0  0.13538  0.55891  0.56367  1.0000
  H   H185      1.0  0.13523  0.57749  0.51502  1.0000
  N   N38       1.0  0.13589  0.51480  0.34506  1.0000
  C   C260      1.0  0.48319  0.61911  0.34282  1.0000
  C   C261      1.0  0.47421  0.61050  0.42440  1.0000
  C   C262      1.0  0.45630  0.59278  0.42760  1.0000
  C   C263      1.0  0.44690  0.58393  0.34568  1.0000
  C   C264      1.0  0.42917  0.56595  0.34187  1.0000
  C   C265      1.0  0.41169  0.56413  0.37500  1.0000
  C   C266      1.0  0.39428  0.54614  0.37190  1.0000
  H   H186      1.0  0.41153  0.57586  0.40207  1.0000
  H   H187      1.0  0.38186  0.54512  0.39728  1.0000
  H   H188      1.0  0.48121  0.61693  0.48267  1.0000
  N   N39       1.0  0.44918  0.58469  0.50887  1.0000
  H   H189      1.0  0.45611  0.59083  0.56365  1.0000
  H   H190      1.0  0.43753  0.57210  0.51499  1.0000
  N   N40       1.0  0.50021  0.63545  0.34508  1.0000
  C   C267      1.0  0.39591  0.87847  0.34278  1.0000
  C   C268      1.0  0.40452  0.87809  0.42437  1.0000
  C   C269      1.0  0.42224  0.87790  0.42759  1.0000
  C   C270      1.0  0.43110  0.87736  0.34568  1.0000
  C   C271      1.0  0.44907  0.87760  0.34189  1.0000
  C   C272      1.0  0.45088  0.86193  0.37500  1.0000
  C   C273      1.0  0.46887  0.86252  0.37191  1.0000
  H   H191      1.0  0.43915  0.85004  0.40202  1.0000
  H   H192      1.0  0.46989  0.85111  0.39726  1.0000
  H   H193      1.0  0.39808  0.87865  0.48263  1.0000
  N   N41       1.0  0.43032  0.87886  0.50887  1.0000
  H   H194      1.0  0.42417  0.87964  0.56365  1.0000
  H   H195      1.0  0.44291  0.87979  0.51501  1.0000
  N   N42       1.0  0.37957  0.87914  0.34504  1.0000
  C   C274      1.0  0.87390  0.48778  0.34280  1.0000
  C   C275      1.0  0.87352  0.47879  0.42438  1.0000
  C   C276      1.0  0.87333  0.46088  0.42759  1.0000
  C   C277      1.0  0.87280  0.45149  0.34568  1.0000
  C   C278      1.0  0.87304  0.43375  0.34189  1.0000
  C   C279      1.0  0.85737  0.41627  0.37498  1.0000
  C   C280      1.0  0.85795  0.39887  0.37190  1.0000
  H   H196      1.0  0.84547  0.41611  0.40200  1.0000
  H   H197      1.0  0.84655  0.38644  0.39723  1.0000
  H   H198      1.0  0.87408  0.48580  0.48263  1.0000
  N   N43       1.0  0.87429  0.45376  0.50887  1.0000
  H   H199      1.0  0.87507  0.46069  0.56365  1.0000
  H   H200      1.0  0.87523  0.44211  0.51501  1.0000
  N   N44       1.0  0.87457  0.50479  0.34505  1.0000
  C   C281      1.0  0.52723  0.40048  0.34255  1.0000
  C   C282      1.0  0.53620  0.40908  0.42417  1.0000
  C   C283      1.0  0.55411  0.42680  0.42747  1.0000
  C   C284      1.0  0.56350  0.43568  0.34559  1.0000
  C   C285      1.0  0.58124  0.45366  0.34188  1.0000
  C   C286      1.0  0.59872  0.45546  0.37496  1.0000
  C   C287      1.0  0.61613  0.47344  0.37191  1.0000
  H   H201      1.0  0.59887  0.44372  0.40193  1.0000
  H   H202      1.0  0.62855  0.47446  0.39723  1.0000
  H   H203      1.0  0.52919  0.40262  0.48240  1.0000
  N   N45       1.0  0.56122  0.43487  0.50878  1.0000
  H   H204      1.0  0.55429  0.42870  0.56353  1.0000
  H   H205      1.0  0.57287  0.44745  0.51497  1.0000
  N   N46       1.0  0.51022  0.38413  0.34472  1.0000
  C   C288      1.0  0.61453  0.14109  0.34254  1.0000
  C   C289      1.0  0.60593  0.14148  0.42416  1.0000
  C   C290      1.0  0.58821  0.14166  0.42746  1.0000
  C   C291      1.0  0.57933  0.14217  0.34559  1.0000
  C   C292      1.0  0.56135  0.14194  0.34187  1.0000
  C   C293      1.0  0.55955  0.15761  0.37495  1.0000
  C   C294      1.0  0.54157  0.15704  0.37190  1.0000
  H   H206      1.0  0.57130  0.16951  0.40191  1.0000
  H   H207      1.0  0.54055  0.16845  0.39721  1.0000
  H   H208      1.0  0.61239  0.14093  0.48239  1.0000
  N   N47       1.0  0.58014  0.14071  0.50877  1.0000
  H   H209      1.0  0.58631  0.13994  0.56353  1.0000
  H   H210      1.0  0.56756  0.13977  0.51496  1.0000
  N   N48       1.0  0.63088  0.14044  0.34472  1.0000
  C   C295      1.0  0.02986  0.38895  0.38512  1.0000
  C   C296      1.0  0.05012  0.40098  0.38196  1.0000
  H   H211      1.0  0.02366  0.38178  0.44337  1.0000
  H   H212      1.0  0.05807  0.40247  0.43805  1.0000
  C   C297      1.0  0.95686  0.36213  0.33776  1.0000
  C   C298      1.0  0.96961  0.37930  0.38397  1.0000
  C   C299      1.0  0.98981  0.38725  0.37776  1.0000
  H   H213      1.0  0.96431  0.38656  0.42020  1.0000
  H   H214      1.0  0.99869  0.40013  0.40933  1.0000
  N   N49       1.0  0.93824  0.35695  0.34044  1.0000
  C   C300      1.0  0.62606  0.65526  0.38513  1.0000
  C   C301      1.0  0.61403  0.66350  0.38197  1.0000
  H   H215      1.0  0.63323  0.65624  0.44337  1.0000
  H   H216      1.0  0.61254  0.66995  0.43807  1.0000
  C   C302      1.0  0.65288  0.60908  0.33775  1.0000
  C   C303      1.0  0.63571  0.60467  0.38397  1.0000
  C   C304      1.0  0.62776  0.61691  0.37775  1.0000
  H   H217      1.0  0.62845  0.59211  0.42021  1.0000
  H   H218      1.0  0.61488  0.61291  0.40933  1.0000
  N   N50       1.0  0.65806  0.59566  0.34044  1.0000
  C   C305      1.0  0.35974  0.98516  0.38511  1.0000
  C   C306      1.0  0.35150  0.96489  0.38194  1.0000
  H   H219      1.0  0.35876  0.99136  0.44335  1.0000
  H   H220      1.0  0.34504  0.95695  0.43803  1.0000
  C   C307      1.0  0.40593  0.05816  0.33778  1.0000
  C   C308      1.0  0.41033  0.04540  0.38402  1.0000
  C   C309      1.0  0.39809  0.02521  0.37780  1.0000
  H   H221      1.0  0.42288  0.05070  0.42029  1.0000
  H   H222      1.0  0.40208  0.01632  0.40939  1.0000
  N   N51       1.0  0.41935  0.07677  0.34050  1.0000
  C   C310      1.0  0.98059  0.63063  0.38511  1.0000
  C   C311      1.0  0.96032  0.61860  0.38196  1.0000
  H   H223      1.0  0.98679  0.63779  0.44336  1.0000
  H   H224      1.0  0.95238  0.61711  0.43806  1.0000
  C   C312      1.0  0.05358  0.65743  0.33769  1.0000
  C   C313      1.0  0.04083  0.64027  0.38388  1.0000
  C   C314      1.0  0.02064  0.63231  0.37767  1.0000
  H   H225      1.0  0.04612  0.63300  0.42009  1.0000
  H   H226      1.0  0.01175  0.61943  0.40923  1.0000
  N   N52       1.0  0.07220  0.66263  0.34038  1.0000
  C   C315      1.0  0.38440  0.36434  0.38518  1.0000
  C   C316      1.0  0.39643  0.35610  0.38202  1.0000
  H   H227      1.0  0.37724  0.36338  0.44342  1.0000
  H   H228      1.0  0.39792  0.34966  0.43814  1.0000
  C   C317      1.0  0.35758  0.41052  0.33771  1.0000
  C   C318      1.0  0.37475  0.41493  0.38390  1.0000
  C   C319      1.0  0.38270  0.40269  0.37771  1.0000
  H   H229      1.0  0.38201  0.42750  0.42011  1.0000
  H   H230      1.0  0.39559  0.40669  0.40926  1.0000
  N   N53       1.0  0.35239  0.42394  0.34040  1.0000
  C   C320      1.0  0.65068  0.03442  0.38518  1.0000
  C   C321      1.0  0.65891  0.05469  0.38203  1.0000
  H   H231      1.0  0.65164  0.02822  0.44344  1.0000
  H   H232      1.0  0.66536  0.06263  0.43813  1.0000
  C   C322      1.0  0.60450  0.96142  0.33777  1.0000
  C   C323      1.0  0.60009  0.97417  0.38396  1.0000
  C   C324      1.0  0.61233  0.99437  0.37775  1.0000
  H   H233      1.0  0.58753  0.96888  0.42018  1.0000
  H   H234      1.0  0.60833  0.00325  0.40932  1.0000
  N   N54       1.0  0.59108  0.94281  0.34046  1.0000
