data_image0
_chemical_formula_structural       C3H2C2H2C2H3C3NH2C4NOC3NHC3H2C2H2C2H3C3NH2C4NOC3NHC3H3C2HC2H2C2NH2C3NH2C2NH2CNCONH2C3NOC3H3C2HC2H2C2NH2C3NH2C2NH2CNCONH2C3NOC3HC4H2C2H2C3NCH2C3NHC9NCONH2OC3HC4H2C2H2C3NCH2C3NHC9NCONH2OC3H3C2H2C2H3C3NH3C5NCONH2C5NCNHC3H3C2H2C2H3C3NH3C5NCONH2C5NCNHC3HC3H3C3HC3H3C3HC3H3C2H2C2H2C2H3C2H2C2H2C2H3C3NC3NH4C3NC3NH4C3NC3NH4C5NCONH2C5NCONH2C5NCONHC5NCONH2C5NCONH2C5NCONHC3HC3H3C3HC3H3C3HC3H3C2H2C2H2C2H3C2H2C2H2C2H3C3NC3NH4C3NC3NH4C3NC3NH4C5NCONH2C5NCONH2C5NCONHC5NCONH2C5NCONH2C5NCONH
_chemical_formula_sum              "C336 H192 N72 O24"
_cell_length_a       46.6696
_cell_length_b       46.6696
_cell_length_c       14.7982
_cell_angle_alpha    90
_cell_angle_beta     90
_cell_angle_gamma    120

_space_group_name_H-M_alt    "P 1"
_space_group_IT_number       1

loop_
  _space_group_symop_operation_xyz
  'x, y, z'

loop_
  _atom_site_type_symbol
  _atom_site_label
  _atom_site_symmetry_multiplicity
  _atom_site_fract_x
  _atom_site_fract_y
  _atom_site_fract_z
  _atom_site_occupancy
  C   C1        1.0  0.02837  0.26574  0.35650  1.0000
  C   C2        1.0  0.08312  0.31919  0.36576  1.0000
  C   C3        1.0  0.04814  0.30114  0.35516  1.0000
  H   H1        1.0  0.03712  0.31511  0.34910  1.0000
  H   H2        1.0  0.14758  0.34157  0.37938  1.0000
  C   C4        1.0  0.10996  0.24163  0.29113  1.0000
  C   C5        1.0  0.13926  0.24000  0.28202  1.0000
  H   H3        1.0  0.14784  0.24083  0.21784  1.0000
  H   H4        1.0  0.09888  0.24320  0.23306  1.0000
  C   C6        1.0  0.13925  0.40280  0.27888  1.0000
  C   C7        1.0  0.10982  0.37194  0.28728  1.0000
  H   H5        1.0  0.09806  0.36010  0.22897  1.0000
  H   H6        1.0  0.14708  0.41149  0.21483  1.0000
  H   H7        1.0  0.12205  0.35863  0.00063  1.0000
  C   C8        1.0  0.04752  0.24948  0.36138  1.0000
  C   C9        1.0  0.08244  0.26593  0.37321  1.0000
  C   C10       1.0  0.10033  0.30129  0.37747  1.0000
  N   N1        1.0  0.13403  0.31806  0.38738  1.0000
  H   H8        1.0  0.14623  0.30751  0.40526  1.0000
  H   H9        1.0  0.03600  0.22436  0.36087  1.0000
  C   C11       1.0  0.14880  0.24824  0.44349  1.0000
  C   C12       1.0  0.11801  0.24799  0.45296  1.0000
  C   C13       1.0  0.09947  0.24749  0.37555  1.0000
  C   C14       1.0  0.10885  0.25183  0.54166  1.0000
  N   N2        1.0  0.12835  0.25529  0.61314  1.0000
  O   O1        1.0  0.08018  0.25117  0.56075  1.0000
  C   C15       1.0  0.10047  0.35461  0.37036  1.0000
  C   C16       1.0  0.11983  0.37138  0.44793  1.0000
  C   C17       1.0  0.12945  0.36994  0.60579  1.0000
  N   N3        1.0  0.11067  0.35645  0.53108  1.0000
  H   H10       1.0  0.08993  0.33575  0.53901  1.0000
  C   C18       1.0  0.02837  0.76574  0.35650  1.0000
  C   C19       1.0  0.08312  0.81919  0.36576  1.0000
  C   C20       1.0  0.04814  0.80114  0.35516  1.0000
  H   H11       1.0  0.03712  0.81512  0.34910  1.0000
  H   H12       1.0  0.14758  0.84157  0.37938  1.0000
  C   C21       1.0  0.10996  0.74163  0.29113  1.0000
  C   C22       1.0  0.13926  0.74000  0.28202  1.0000
  H   H13       1.0  0.14784  0.74083  0.21784  1.0000
  H   H14       1.0  0.09888  0.74320  0.23306  1.0000
  C   C23       1.0  0.13925  0.90280  0.27888  1.0000
  C   C24       1.0  0.10982  0.87194  0.28728  1.0000
  H   H15       1.0  0.09806  0.86010  0.22897  1.0000
  H   H16       1.0  0.14708  0.91148  0.21483  1.0000
  H   H17       1.0  0.12204  0.85863  0.00063  1.0000
  C   C25       1.0  0.04752  0.74948  0.36138  1.0000
  C   C26       1.0  0.08244  0.76593  0.37321  1.0000
  C   C27       1.0  0.10033  0.80129  0.37747  1.0000
  N   N4        1.0  0.13403  0.81806  0.38738  1.0000
  H   H18       1.0  0.14623  0.80751  0.40526  1.0000
  H   H19       1.0  0.03600  0.72436  0.36087  1.0000
  C   C28       1.0  0.14880  0.74825  0.44349  1.0000
  C   C29       1.0  0.11801  0.74799  0.45296  1.0000
  C   C30       1.0  0.09947  0.74749  0.37555  1.0000
  C   C31       1.0  0.10885  0.75183  0.54166  1.0000
  N   N5        1.0  0.12835  0.75529  0.61314  1.0000
  O   O2        1.0  0.08018  0.75117  0.56075  1.0000
  C   C32       1.0  0.10047  0.85461  0.37036  1.0000
  C   C33       1.0  0.11983  0.87138  0.44793  1.0000
  C   C34       1.0  0.12945  0.86994  0.60579  1.0000
  N   N6        1.0  0.11068  0.85645  0.53108  1.0000
  H   H20       1.0  0.08993  0.83575  0.53901  1.0000
  C   C35       1.0  0.25061  0.26515  0.34848  1.0000
  C   C36       1.0  0.19569  0.26350  0.33971  1.0000
  C   C37       1.0  0.21507  0.24798  0.34979  1.0000
  H   H21       1.0  0.20197  0.22304  0.35811  1.0000
  H   H22       1.0  0.17371  0.30253  0.28152  1.0000
  H   H23       1.0  0.22957  0.03458  0.34777  1.0000
  C   C38       1.0  0.25078  0.48890  0.34245  1.0000
  C   C39       1.0  0.24847  0.43432  0.32298  1.0000
  H   H24       1.0  0.21101  0.38163  0.23310  1.0000
  C   C40       1.0  0.24564  0.14101  0.27853  1.0000
  C   C41       1.0  0.24591  0.11092  0.27223  1.0000
  H   H25       1.0  0.24202  0.09997  0.21007  1.0000
  H   H26       1.0  0.24185  0.15043  0.22019  1.0000
  C   C42       1.0  0.24760  0.31746  0.34150  1.0000
  C   C43       1.0  0.21260  0.29856  0.33001  1.0000
  N   N7        1.0  0.19567  0.31423  0.30650  1.0000
  H   H27       1.0  0.20705  0.33744  0.29488  1.0000
  H   H28       1.0  0.22997  0.19851  0.35359  1.0000
  C   C44       1.0  0.21530  0.47024  0.34469  1.0000
  C   C45       1.0  0.19627  0.43544  0.33175  1.0000
  C   C46       1.0  0.21362  0.41851  0.30956  1.0000
  N   N8        1.0  0.19806  0.38802  0.27017  1.0000
  H   H29       1.0  0.17497  0.37685  0.25420  1.0000
  H   H30       1.0  0.20211  0.48172  0.35800  1.0000
  C   C47       1.0  0.16074  0.24601  0.35625  1.0000
  C   C48       1.0  0.15733  0.25577  0.60301  1.0000
  N   N9        1.0  0.16737  0.25249  0.51954  1.0000
  H   H31       1.0  0.17137  0.25843  0.65876  1.0000
  H   H32       1.0  0.18813  0.25242  0.51605  1.0000
  C   C49       1.0  0.24324  0.34735  0.51486  1.0000
  N   N10       1.0  0.23345  0.35925  0.58428  1.0000
  C   C50       1.0  0.23300  0.38784  0.57732  1.0000
  O   O3        1.0  0.24402  0.31931  0.53242  1.0000
  N   N11       1.0  0.24293  0.40550  0.49951  1.0000
  H   H33       1.0  0.22569  0.39617  0.63156  1.0000
  H   H34       1.0  0.24330  0.42649  0.49893  1.0000
  C   C51       1.0  0.15051  0.40201  0.43887  1.0000
  C   C52       1.0  0.16162  0.41709  0.35209  1.0000
  C   C53       1.0  0.16918  0.41482  0.51955  1.0000
  N   N12       1.0  0.15819  0.39884  0.59926  1.0000
  O   O4        1.0  0.19755  0.44419  0.52494  1.0000
  C   C54       1.0  0.25061  0.76515  0.34848  1.0000
  C   C55       1.0  0.19570  0.76350  0.33971  1.0000
  C   C56       1.0  0.21508  0.74798  0.34979  1.0000
  H   H35       1.0  0.20197  0.72304  0.35812  1.0000
  H   H36       1.0  0.17371  0.80253  0.28152  1.0000
  H   H37       1.0  0.22957  0.53458  0.34777  1.0000
  C   C57       1.0  0.25078  0.98890  0.34245  1.0000
  C   C58       1.0  0.24847  0.93432  0.32298  1.0000
  H   H38       1.0  0.21102  0.88164  0.23310  1.0000
  C   C59       1.0  0.24564  0.64101  0.27853  1.0000
  C   C60       1.0  0.24591  0.61092  0.27223  1.0000
  H   H39       1.0  0.24202  0.59997  0.21007  1.0000
  H   H40       1.0  0.24185  0.65044  0.22019  1.0000
  C   C61       1.0  0.24760  0.81746  0.34150  1.0000
  C   C62       1.0  0.21261  0.79856  0.33001  1.0000
  N   N13       1.0  0.19567  0.81422  0.30650  1.0000
  H   H41       1.0  0.20705  0.83744  0.29488  1.0000
  H   H42       1.0  0.22997  0.69851  0.35359  1.0000
  C   C63       1.0  0.21530  0.97024  0.34469  1.0000
  C   C64       1.0  0.19627  0.93544  0.33175  1.0000
  C   C65       1.0  0.21362  0.91851  0.30956  1.0000
  N   N14       1.0  0.19806  0.88802  0.27017  1.0000
  H   H43       1.0  0.17497  0.87685  0.25420  1.0000
  H   H44       1.0  0.20212  0.98172  0.35800  1.0000
  C   C66       1.0  0.16074  0.74601  0.35625  1.0000
  C   C67       1.0  0.15733  0.75577  0.60301  1.0000
  N   N15       1.0  0.16737  0.75249  0.51954  1.0000
  H   H45       1.0  0.17137  0.75843  0.65876  1.0000
  H   H46       1.0  0.18813  0.75242  0.51605  1.0000
  C   C68       1.0  0.24325  0.84736  0.51486  1.0000
  N   N16       1.0  0.23345  0.85925  0.58428  1.0000
  C   C69       1.0  0.23300  0.88784  0.57732  1.0000
  O   O5        1.0  0.24402  0.81931  0.53242  1.0000
  N   N17       1.0  0.24293  0.90550  0.49951  1.0000
  H   H47       1.0  0.22569  0.89617  0.63156  1.0000
  H   H48       1.0  0.24330  0.92649  0.49893  1.0000
  C   C70       1.0  0.15051  0.90201  0.43887  1.0000
  C   C71       1.0  0.16162  0.91709  0.35209  1.0000
  C   C72       1.0  0.16918  0.91482  0.51955  1.0000
  N   N18       1.0  0.15819  0.89884  0.59926  1.0000
  O   O6        1.0  0.19755  0.94419  0.52494  1.0000
  C   C73       1.0  0.26990  0.24844  0.34864  1.0000
  C   C74       1.0  0.30543  0.26561  0.34952  1.0000
  C   C75       1.0  0.32480  0.25006  0.34010  1.0000
  H   H49       1.0  0.31854  0.29059  0.35692  1.0000
  C   C76       1.0  0.26970  0.02484  0.34240  1.0000
  C   C77       1.0  0.25442  0.04487  0.33941  1.0000
  C   C78       1.0  0.27199  0.07941  0.32272  1.0000
  C   C79       1.0  0.26606  0.46886  0.33948  1.0000
  H   H50       1.0  0.29091  0.47915  0.34795  1.0000
  H   H51       1.0  0.30960  0.13243  0.23350  1.0000
  C   C80       1.0  0.27519  0.37294  0.27868  1.0000
  C   C81       1.0  0.27487  0.40302  0.27293  1.0000
  H   H52       1.0  0.27920  0.41427  0.21109  1.0000
  H   H53       1.0  0.27939  0.36384  0.22034  1.0000
  C   C82       1.0  0.30790  0.21494  0.33218  1.0000
  C   C83       1.0  0.27288  0.19609  0.34321  1.0000
  C   C84       1.0  0.25490  0.21313  0.34811  1.0000
  N   N19       1.0  0.32492  0.19915  0.31082  1.0000
  C   C85       1.0  0.26559  0.30046  0.34752  1.0000
  H   H54       1.0  0.31392  0.17577  0.30282  1.0000
  H   H55       1.0  0.29051  0.31510  0.35353  1.0000
  C   C86       1.0  0.30684  0.09524  0.30938  1.0000
  C   C87       1.0  0.32420  0.07830  0.33154  1.0000
  C   C88       1.0  0.30518  0.04350  0.34460  1.0000
  N   N20       1.0  0.32243  0.12574  0.27003  1.0000
  H   H56       1.0  0.31837  0.03202  0.35785  1.0000
  C   C89       1.0  0.26273  0.41421  0.34430  1.0000
  C   C90       1.0  0.25347  0.39533  0.42594  1.0000
  C   C91       1.0  0.25391  0.36488  0.43176  1.0000
  C   C92       1.0  0.26337  0.35239  0.35617  1.0000
  C   C93       1.0  0.25764  0.09946  0.34392  1.0000
  C   C94       1.0  0.26638  0.11785  0.42636  1.0000
  C   C95       1.0  0.26585  0.14825  0.43277  1.0000
  C   C96       1.0  0.25689  0.16109  0.35699  1.0000
  C   C97       1.0  0.27611  0.16544  0.51640  1.0000
  N   N21       1.0  0.28554  0.15324  0.58592  1.0000
  C   C98       1.0  0.28604  0.12468  0.57848  1.0000
  O   O7        1.0  0.27536  0.19347  0.53427  1.0000
  N   N22       1.0  0.27655  0.10737  0.50004  1.0000
  H   H57       1.0  0.29308  0.11612  0.63278  1.0000
  H   H58       1.0  0.27626  0.08642  0.49903  1.0000
  O   O8        1.0  0.32290  0.06972  0.52477  1.0000
  C   C99       1.0  0.26990  0.74844  0.34864  1.0000
  C   C100      1.0  0.30543  0.76561  0.34952  1.0000
  C   C101      1.0  0.32480  0.75006  0.34010  1.0000
  H   H59       1.0  0.31854  0.79059  0.35692  1.0000
  C   C102      1.0  0.26970  0.52484  0.34240  1.0000
  C   C103      1.0  0.25442  0.54487  0.33941  1.0000
  C   C104      1.0  0.27199  0.57941  0.32272  1.0000
  C   C105      1.0  0.26606  0.96886  0.33948  1.0000
  H   H60       1.0  0.29090  0.97915  0.34795  1.0000
  H   H61       1.0  0.30960  0.63243  0.23350  1.0000
  C   C106      1.0  0.27519  0.87295  0.27868  1.0000
  C   C107      1.0  0.27487  0.90302  0.27293  1.0000
  H   H62       1.0  0.27921  0.91427  0.21109  1.0000
  H   H63       1.0  0.27939  0.86384  0.22034  1.0000
  C   C108      1.0  0.30790  0.71494  0.33218  1.0000
  C   C109      1.0  0.27288  0.69609  0.34321  1.0000
  C   C110      1.0  0.25490  0.71313  0.34811  1.0000
  N   N23       1.0  0.32492  0.69915  0.31082  1.0000
  C   C111      1.0  0.26559  0.80046  0.34752  1.0000
  H   H64       1.0  0.31392  0.67577  0.30282  1.0000
  H   H65       1.0  0.29051  0.81509  0.35353  1.0000
  C   C112      1.0  0.30684  0.59524  0.30938  1.0000
  C   C113      1.0  0.32420  0.57830  0.33154  1.0000
  C   C114      1.0  0.30518  0.54350  0.34460  1.0000
  N   N24       1.0  0.32243  0.62574  0.27003  1.0000
  H   H66       1.0  0.31837  0.53202  0.35785  1.0000
  C   C115      1.0  0.26273  0.91421  0.34430  1.0000
  C   C116      1.0  0.25347  0.89533  0.42594  1.0000
  C   C117      1.0  0.25391  0.86488  0.43176  1.0000
  C   C118      1.0  0.26337  0.85239  0.35617  1.0000
  C   C119      1.0  0.25764  0.59946  0.34392  1.0000
  C   C120      1.0  0.26638  0.61784  0.42636  1.0000
  C   C121      1.0  0.26585  0.64825  0.43277  1.0000
  C   C122      1.0  0.25689  0.66109  0.35699  1.0000
  C   C123      1.0  0.27611  0.66544  0.51640  1.0000
  N   N25       1.0  0.28554  0.65324  0.58592  1.0000
  C   C124      1.0  0.28604  0.62468  0.57848  1.0000
  O   O9        1.0  0.27536  0.69347  0.53427  1.0000
  N   N26       1.0  0.27655  0.60737  0.50004  1.0000
  H   H67       1.0  0.29308  0.61612  0.63278  1.0000
  H   H68       1.0  0.27626  0.58642  0.49903  1.0000
  O   O10       1.0  0.32290  0.56973  0.52477  1.0000
  C   C125      1.0  0.49221  0.24801  0.35656  1.0000
  C   C126      1.0  0.47243  0.21261  0.35498  1.0000
  C   C127      1.0  0.43747  0.19456  0.36584  1.0000
  H   H69       1.0  0.48344  0.19865  0.34844  1.0000
  H   H70       1.0  0.37301  0.17223  0.38024  1.0000
  H   H71       1.0  0.34676  0.21075  0.28494  1.0000
  C   C128      1.0  0.41050  0.27180  0.29098  1.0000
  C   C129      1.0  0.38113  0.27331  0.28197  1.0000
  H   H72       1.0  0.37240  0.27221  0.21783  1.0000
  H   H73       1.0  0.42136  0.26990  0.23289  1.0000
  C   C130      1.0  0.38122  0.11089  0.27872  1.0000
  C   C131      1.0  0.41063  0.14175  0.28703  1.0000
  H   H74       1.0  0.42247  0.15358  0.22878  1.0000
  H   H75       1.0  0.37338  0.10219  0.21468  1.0000
  H   H76       1.0  0.39875  0.15502  0.00047  1.0000
  C   C132      1.0  0.42029  0.21247  0.37816  1.0000
  C   C133      1.0  0.43815  0.24782  0.37380  1.0000
  C   C134      1.0  0.47305  0.26427  0.36161  1.0000
  N   N27       1.0  0.38662  0.19571  0.38874  1.0000
  H   H77       1.0  0.37459  0.20621  0.40859  1.0000
  H   H78       1.0  0.48456  0.28939  0.36089  1.0000
  H   H79       1.0  0.34556  0.13694  0.25449  1.0000
  C   C135      1.0  0.35978  0.26760  0.35639  1.0000
  C   C136      1.0  0.37191  0.26568  0.44363  1.0000
  C   C137      1.0  0.40274  0.26602  0.45314  1.0000
  C   C138      1.0  0.42107  0.26623  0.37561  1.0000
  C   C139      1.0  0.41206  0.26246  0.54190  1.0000
  N   N28       1.0  0.39266  0.25921  0.61346  1.0000
  C   C140      1.0  0.36363  0.25863  0.60333  1.0000
  O   O11       1.0  0.44079  0.26323  0.56095  1.0000
  N   N29       1.0  0.35345  0.26162  0.51977  1.0000
  H   H80       1.0  0.34965  0.25610  0.65912  1.0000
  H   H81       1.0  0.33261  0.26156  0.51627  1.0000
  C   C141      1.0  0.42009  0.15913  0.36999  1.0000
  C   C142      1.0  0.40078  0.14232  0.44766  1.0000
  C   C143      1.0  0.37004  0.11174  0.43865  1.0000
  C   C144      1.0  0.35883  0.09663  0.35195  1.0000
  C   C145      1.0  0.35135  0.09902  0.51934  1.0000
  N   N30       1.0  0.36244  0.11494  0.59908  1.0000
  C   C146      1.0  0.39127  0.14374  0.60562  1.0000
  N   N31       1.0  0.41003  0.15721  0.53085  1.0000
  H   H82       1.0  0.43084  0.17783  0.53879  1.0000
  C   C147      1.0  0.49221  0.74801  0.35656  1.0000
  C   C148      1.0  0.47243  0.71261  0.35498  1.0000
  C   C149      1.0  0.43747  0.69456  0.36584  1.0000
  H   H83       1.0  0.48344  0.69865  0.34844  1.0000
  H   H84       1.0  0.37301  0.67223  0.38024  1.0000
  H   H85       1.0  0.34676  0.71075  0.28494  1.0000
  C   C150      1.0  0.41050  0.77180  0.29098  1.0000
  C   C151      1.0  0.38113  0.77331  0.28197  1.0000
  H   H86       1.0  0.37240  0.77221  0.21783  1.0000
  H   H87       1.0  0.42136  0.76989  0.23289  1.0000
  C   C152      1.0  0.38121  0.61089  0.27872  1.0000
  C   C153      1.0  0.41063  0.64175  0.28703  1.0000
  H   H88       1.0  0.42248  0.65358  0.22878  1.0000
  H   H89       1.0  0.37338  0.60219  0.21468  1.0000
  H   H90       1.0  0.39875  0.65502  0.00047  1.0000
  C   C154      1.0  0.42029  0.71247  0.37816  1.0000
  C   C155      1.0  0.43815  0.74782  0.37380  1.0000
  C   C156      1.0  0.47305  0.76427  0.36161  1.0000
  N   N32       1.0  0.38662  0.69571  0.38874  1.0000
  H   H91       1.0  0.37459  0.70621  0.40859  1.0000
  H   H92       1.0  0.48456  0.78938  0.36089  1.0000
  H   H93       1.0  0.34556  0.63694  0.25449  1.0000
  C   C157      1.0  0.35978  0.76760  0.35639  1.0000
  C   C158      1.0  0.37191  0.76568  0.44363  1.0000
  C   C159      1.0  0.40274  0.76602  0.45314  1.0000
  C   C160      1.0  0.42107  0.76623  0.37561  1.0000
  C   C161      1.0  0.41206  0.76246  0.54190  1.0000
  N   N33       1.0  0.39266  0.75920  0.61346  1.0000
  C   C162      1.0  0.36363  0.75863  0.60333  1.0000
  O   O12       1.0  0.44079  0.76323  0.56095  1.0000
  N   N34       1.0  0.35345  0.76163  0.51977  1.0000
  H   H94       1.0  0.34965  0.75610  0.65912  1.0000
  H   H95       1.0  0.33261  0.76156  0.51627  1.0000
  C   C163      1.0  0.42009  0.65913  0.36999  1.0000
  C   C164      1.0  0.40078  0.64232  0.44766  1.0000
  C   C165      1.0  0.37004  0.61174  0.43865  1.0000
  C   C166      1.0  0.35883  0.59663  0.35195  1.0000
  C   C167      1.0  0.35135  0.59902  0.51934  1.0000
  N   N35       1.0  0.36244  0.61494  0.59908  1.0000
  C   C168      1.0  0.39127  0.64374  0.60562  1.0000
  N   N36       1.0  0.41003  0.65721  0.53085  1.0000
  H   H96       1.0  0.43084  0.67783  0.53879  1.0000
  C   C169      1.0  0.99221  0.24801  0.35656  1.0000
  C   C170      1.0  0.97243  0.21261  0.35498  1.0000
  C   C171      1.0  0.93747  0.19456  0.36584  1.0000
  H   H97       1.0  0.98344  0.19865  0.34844  1.0000
  C   C172      1.0  0.52837  0.26574  0.35650  1.0000
  C   C173      1.0  0.58312  0.31919  0.36576  1.0000
  C   C174      1.0  0.54814  0.30114  0.35516  1.0000
  H   H98       1.0  0.53712  0.31511  0.34910  1.0000
  H   H99       1.0  0.64758  0.34157  0.37938  1.0000
  H   H100      1.0  0.87301  0.17223  0.38024  1.0000
  C   C175      1.0  0.76990  0.24844  0.34864  1.0000
  C   C176      1.0  0.80543  0.26561  0.34952  1.0000
  C   C177      1.0  0.82480  0.25006  0.34010  1.0000
  H   H101      1.0  0.81854  0.29059  0.35692  1.0000
  C   C178      1.0  0.75061  0.26515  0.34848  1.0000
  C   C179      1.0  0.69570  0.26350  0.33971  1.0000
  C   C180      1.0  0.71508  0.24798  0.34979  1.0000
  H   H102      1.0  0.70197  0.22304  0.35811  1.0000
  H   H103      1.0  0.67371  0.30253  0.28152  1.0000
  H   H104      1.0  0.84676  0.21075  0.28494  1.0000
  C   C181      1.0  0.76970  0.02484  0.34240  1.0000
  C   C182      1.0  0.75442  0.04487  0.33941  1.0000
  C   C183      1.0  0.77199  0.07941  0.32272  1.0000
  H   H105      1.0  0.72957  0.03458  0.34777  1.0000
  C   C184      1.0  0.75078  0.48890  0.34245  1.0000
  C   C185      1.0  0.74847  0.43432  0.32298  1.0000
  C   C186      1.0  0.76606  0.46886  0.33948  1.0000
  H   H106      1.0  0.79090  0.47915  0.34795  1.0000
  H   H107      1.0  0.71101  0.38163  0.23310  1.0000
  H   H108      1.0  0.80960  0.13243  0.23350  1.0000
  C   C187      1.0  0.60996  0.24163  0.29113  1.0000
  C   C188      1.0  0.63926  0.24000  0.28202  1.0000
  H   H109      1.0  0.64784  0.24083  0.21784  1.0000
  H   H110      1.0  0.59888  0.24320  0.23306  1.0000
  C   C189      1.0  0.77519  0.37294  0.27868  1.0000
  C   C190      1.0  0.77487  0.40302  0.27293  1.0000
  H   H111      1.0  0.77921  0.41427  0.21109  1.0000
  H   H112      1.0  0.77939  0.36384  0.22034  1.0000
  C   C191      1.0  0.63925  0.40280  0.27888  1.0000
  C   C192      1.0  0.60982  0.37194  0.28728  1.0000
  H   H113      1.0  0.59806  0.36010  0.22897  1.0000
  H   H114      1.0  0.64708  0.41149  0.21483  1.0000
  H   H115      1.0  0.62205  0.35863  0.00063  1.0000
  C   C193      1.0  0.91050  0.27180  0.29098  1.0000
  C   C194      1.0  0.88113  0.27331  0.28197  1.0000
  H   H116      1.0  0.87240  0.27221  0.21783  1.0000
  H   H117      1.0  0.92136  0.26990  0.23289  1.0000
  C   C195      1.0  0.74564  0.14101  0.27853  1.0000
  C   C196      1.0  0.74591  0.11092  0.27223  1.0000
  H   H118      1.0  0.74203  0.09997  0.21007  1.0000
  H   H119      1.0  0.74185  0.15043  0.22019  1.0000
  C   C197      1.0  0.88121  0.11089  0.27872  1.0000
  C   C198      1.0  0.91063  0.14175  0.28703  1.0000
  H   H120      1.0  0.92248  0.15358  0.22878  1.0000
  H   H121      1.0  0.87338  0.10219  0.21468  1.0000
  H   H122      1.0  0.89875  0.15502  0.00047  1.0000
  C   C199      1.0  0.92029  0.21247  0.37816  1.0000
  C   C200      1.0  0.93815  0.24782  0.37380  1.0000
  C   C201      1.0  0.97306  0.26427  0.36161  1.0000
  N   N37       1.0  0.88662  0.19571  0.38874  1.0000
  C   C202      1.0  0.54752  0.24948  0.36138  1.0000
  C   C203      1.0  0.58244  0.26593  0.37321  1.0000
  C   C204      1.0  0.60033  0.30129  0.37747  1.0000
  N   N38       1.0  0.63404  0.31806  0.38738  1.0000
  H   H123      1.0  0.64623  0.30751  0.40526  1.0000
  H   H124      1.0  0.87459  0.20621  0.40859  1.0000
  H   H125      1.0  0.98456  0.28939  0.36089  1.0000
  H   H126      1.0  0.53600  0.22436  0.36087  1.0000
  C   C205      1.0  0.80790  0.21494  0.33218  1.0000
  C   C206      1.0  0.77288  0.19609  0.34321  1.0000
  C   C207      1.0  0.75490  0.21313  0.34811  1.0000
  N   N39       1.0  0.82492  0.19915  0.31082  1.0000
  C   C208      1.0  0.76559  0.30046  0.34752  1.0000
  C   C209      1.0  0.74760  0.31746  0.34150  1.0000
  C   C210      1.0  0.71261  0.29856  0.33001  1.0000
  N   N40       1.0  0.69567  0.31423  0.30650  1.0000
  H   H127      1.0  0.70705  0.33744  0.29488  1.0000
  H   H128      1.0  0.81392  0.17577  0.30282  1.0000
  H   H129      1.0  0.72997  0.19851  0.35359  1.0000
  H   H130      1.0  0.79051  0.31510  0.35353  1.0000
  C   C211      1.0  0.80684  0.09524  0.30938  1.0000
  C   C212      1.0  0.82420  0.07830  0.33154  1.0000
  C   C213      1.0  0.80518  0.04350  0.34460  1.0000
  N   N41       1.0  0.82243  0.12574  0.27003  1.0000
  C   C214      1.0  0.71530  0.47024  0.34469  1.0000
  C   C215      1.0  0.69627  0.43544  0.33175  1.0000
  C   C216      1.0  0.71363  0.41851  0.30956  1.0000
  N   N42       1.0  0.69806  0.38802  0.27017  1.0000
  H   H131      1.0  0.67497  0.37685  0.25420  1.0000
  H   H132      1.0  0.84556  0.13694  0.25449  1.0000
  H   H133      1.0  0.81837  0.03202  0.35785  1.0000
  H   H134      1.0  0.70212  0.48172  0.35800  1.0000
  C   C217      1.0  0.66074  0.24601  0.35625  1.0000
  C   C218      1.0  0.64880  0.24824  0.44349  1.0000
  C   C219      1.0  0.61801  0.24799  0.45296  1.0000
  C   C220      1.0  0.59947  0.24749  0.37555  1.0000
  C   C221      1.0  0.60885  0.25183  0.54166  1.0000
  N   N43       1.0  0.62835  0.25529  0.61314  1.0000
  C   C222      1.0  0.65733  0.25577  0.60301  1.0000
  O   O13       1.0  0.58018  0.25117  0.56075  1.0000
  N   N44       1.0  0.66737  0.25249  0.51954  1.0000
  H   H135      1.0  0.67137  0.25843  0.65876  1.0000
  H   H136      1.0  0.68813  0.25242  0.51605  1.0000
  C   C223      1.0  0.76274  0.41421  0.34430  1.0000
  C   C224      1.0  0.75347  0.39533  0.42594  1.0000
  C   C225      1.0  0.75391  0.36488  0.43176  1.0000
  C   C226      1.0  0.76337  0.35239  0.35617  1.0000
  C   C227      1.0  0.74325  0.34735  0.51486  1.0000
  N   N45       1.0  0.73345  0.35925  0.58428  1.0000
  C   C228      1.0  0.73300  0.38784  0.57732  1.0000
  O   O14       1.0  0.74402  0.31931  0.53242  1.0000
  N   N46       1.0  0.74293  0.40550  0.49951  1.0000
  H   H137      1.0  0.72569  0.39617  0.63156  1.0000
  H   H138      1.0  0.74330  0.42649  0.49893  1.0000
  C   C229      1.0  0.60047  0.35461  0.37036  1.0000
  C   C230      1.0  0.61983  0.37138  0.44793  1.0000
  C   C231      1.0  0.65051  0.40201  0.43887  1.0000
  C   C232      1.0  0.66162  0.41709  0.35209  1.0000
  C   C233      1.0  0.66918  0.41482  0.51955  1.0000
  N   N47       1.0  0.65819  0.39884  0.59926  1.0000
  C   C234      1.0  0.62945  0.36994  0.60579  1.0000
  O   O15       1.0  0.69755  0.44419  0.52494  1.0000
  N   N48       1.0  0.61067  0.35645  0.53108  1.0000
  H   H139      1.0  0.58993  0.33575  0.53901  1.0000
  C   C235      1.0  0.85977  0.26760  0.35639  1.0000
  C   C236      1.0  0.87191  0.26568  0.44363  1.0000
  C   C237      1.0  0.90274  0.26602  0.45314  1.0000
  C   C238      1.0  0.92107  0.26623  0.37561  1.0000
  C   C239      1.0  0.91206  0.26246  0.54190  1.0000
  N   N49       1.0  0.89266  0.25921  0.61346  1.0000
  C   C240      1.0  0.86363  0.25863  0.60333  1.0000
  O   O16       1.0  0.94079  0.26323  0.56095  1.0000
  N   N50       1.0  0.85345  0.26162  0.51977  1.0000
  H   H140      1.0  0.84966  0.25610  0.65912  1.0000
  H   H141      1.0  0.83261  0.26156  0.51627  1.0000
  C   C241      1.0  0.75764  0.09946  0.34392  1.0000
  C   C242      1.0  0.76638  0.11785  0.42636  1.0000
  C   C243      1.0  0.76585  0.14825  0.43277  1.0000
  C   C244      1.0  0.75689  0.16109  0.35699  1.0000
  C   C245      1.0  0.77611  0.16544  0.51640  1.0000
  N   N51       1.0  0.78554  0.15324  0.58592  1.0000
  C   C246      1.0  0.78604  0.12468  0.57848  1.0000
  O   O17       1.0  0.77536  0.19347  0.53427  1.0000
  N   N52       1.0  0.77655  0.10737  0.50004  1.0000
  H   H142      1.0  0.79308  0.11612  0.63278  1.0000
  H   H143      1.0  0.77626  0.08642  0.49903  1.0000
  C   C247      1.0  0.92009  0.15913  0.36999  1.0000
  C   C248      1.0  0.90078  0.14232  0.44766  1.0000
  C   C249      1.0  0.87004  0.11174  0.43865  1.0000
  C   C250      1.0  0.85883  0.09663  0.35195  1.0000
  C   C251      1.0  0.85135  0.09902  0.51934  1.0000
  N   N53       1.0  0.86244  0.11494  0.59908  1.0000
  C   C252      1.0  0.89127  0.14374  0.60562  1.0000
  O   O18       1.0  0.82290  0.06972  0.52477  1.0000
  N   N54       1.0  0.91003  0.15721  0.53085  1.0000
  H   H144      1.0  0.93084  0.17783  0.53879  1.0000
  C   C253      1.0  0.99221  0.74801  0.35656  1.0000
  C   C254      1.0  0.97243  0.71261  0.35498  1.0000
  C   C255      1.0  0.93747  0.69456  0.36584  1.0000
  H   H145      1.0  0.98344  0.69865  0.34844  1.0000
  C   C256      1.0  0.52837  0.76574  0.35650  1.0000
  C   C257      1.0  0.58312  0.81919  0.36576  1.0000
  C   C258      1.0  0.54815  0.80114  0.35516  1.0000
  H   H146      1.0  0.53712  0.81512  0.34910  1.0000
  H   H147      1.0  0.64758  0.84157  0.37938  1.0000
  H   H148      1.0  0.87301  0.67223  0.38024  1.0000
  C   C259      1.0  0.76990  0.74844  0.34864  1.0000
  C   C260      1.0  0.80543  0.76561  0.34952  1.0000
  C   C261      1.0  0.82480  0.75006  0.34010  1.0000
  H   H149      1.0  0.81854  0.79059  0.35692  1.0000
  C   C262      1.0  0.75061  0.76515  0.34848  1.0000
  C   C263      1.0  0.69570  0.76350  0.33971  1.0000
  C   C264      1.0  0.71508  0.74798  0.34979  1.0000
  H   H150      1.0  0.70197  0.72304  0.35812  1.0000
  H   H151      1.0  0.67371  0.80253  0.28152  1.0000
  H   H152      1.0  0.84676  0.71075  0.28494  1.0000
  C   C265      1.0  0.76970  0.52484  0.34240  1.0000
  C   C266      1.0  0.75442  0.54487  0.33941  1.0000
  C   C267      1.0  0.77199  0.57941  0.32272  1.0000
  H   H153      1.0  0.72957  0.53458  0.34777  1.0000
  C   C268      1.0  0.75078  0.98890  0.34245  1.0000
  C   C269      1.0  0.74847  0.93432  0.32298  1.0000
  C   C270      1.0  0.76606  0.96886  0.33948  1.0000
  H   H154      1.0  0.79090  0.97915  0.34795  1.0000
  H   H155      1.0  0.71101  0.88164  0.23310  1.0000
  H   H156      1.0  0.80960  0.63243  0.23350  1.0000
  C   C271      1.0  0.60996  0.74163  0.29113  1.0000
  C   C272      1.0  0.63926  0.74000  0.28202  1.0000
  H   H157      1.0  0.64784  0.74083  0.21784  1.0000
  H   H158      1.0  0.59888  0.74320  0.23306  1.0000
  C   C273      1.0  0.77519  0.87295  0.27868  1.0000
  C   C274      1.0  0.77487  0.90302  0.27293  1.0000
  H   H159      1.0  0.77921  0.91427  0.21109  1.0000
  H   H160      1.0  0.77939  0.86384  0.22034  1.0000
  C   C275      1.0  0.63925  0.90280  0.27888  1.0000
  C   C276      1.0  0.60982  0.87194  0.28728  1.0000
  H   H161      1.0  0.59806  0.86010  0.22897  1.0000
  H   H162      1.0  0.64708  0.91148  0.21483  1.0000
  H   H163      1.0  0.62204  0.85863  0.00063  1.0000
  C   C277      1.0  0.91050  0.77180  0.29098  1.0000
  C   C278      1.0  0.88113  0.77331  0.28197  1.0000
  H   H164      1.0  0.87240  0.77221  0.21783  1.0000
  H   H165      1.0  0.92136  0.76989  0.23289  1.0000
  C   C279      1.0  0.74564  0.64101  0.27853  1.0000
  C   C280      1.0  0.74591  0.61092  0.27223  1.0000
  H   H166      1.0  0.74203  0.59997  0.21007  1.0000
  H   H167      1.0  0.74185  0.65044  0.22019  1.0000
  C   C281      1.0  0.88122  0.61089  0.27872  1.0000
  C   C282      1.0  0.91063  0.64175  0.28703  1.0000
  H   H168      1.0  0.92248  0.65358  0.22878  1.0000
  H   H169      1.0  0.87338  0.60219  0.21468  1.0000
  H   H170      1.0  0.89875  0.65502  0.00047  1.0000
  C   C283      1.0  0.92029  0.71247  0.37816  1.0000
  C   C284      1.0  0.93815  0.74782  0.37380  1.0000
  C   C285      1.0  0.97306  0.76427  0.36161  1.0000
  N   N55       1.0  0.88662  0.69571  0.38874  1.0000
  C   C286      1.0  0.54752  0.74948  0.36138  1.0000
  C   C287      1.0  0.58244  0.76593  0.37321  1.0000
  C   C288      1.0  0.60033  0.80129  0.37747  1.0000
  N   N56       1.0  0.63404  0.81806  0.38738  1.0000
  H   H171      1.0  0.64623  0.80751  0.40526  1.0000
  H   H172      1.0  0.87459  0.70621  0.40859  1.0000
  H   H173      1.0  0.98456  0.78938  0.36089  1.0000
  H   H174      1.0  0.53600  0.72436  0.36087  1.0000
  C   C289      1.0  0.80790  0.71494  0.33218  1.0000
  C   C290      1.0  0.77289  0.69609  0.34321  1.0000
  C   C291      1.0  0.75490  0.71313  0.34811  1.0000
  N   N57       1.0  0.82492  0.69915  0.31082  1.0000
  C   C292      1.0  0.76559  0.80046  0.34752  1.0000
  C   C293      1.0  0.74760  0.81746  0.34150  1.0000
  C   C294      1.0  0.71261  0.79856  0.33001  1.0000
  N   N58       1.0  0.69567  0.81422  0.30650  1.0000
  H   H175      1.0  0.70705  0.83744  0.29488  1.0000
  H   H176      1.0  0.81392  0.67577  0.30282  1.0000
  H   H177      1.0  0.72997  0.69851  0.35359  1.0000
  H   H178      1.0  0.79051  0.81509  0.35353  1.0000
  C   C295      1.0  0.80684  0.59524  0.30938  1.0000
  C   C296      1.0  0.82420  0.57830  0.33154  1.0000
  C   C297      1.0  0.80518  0.54350  0.34460  1.0000
  N   N59       1.0  0.82243  0.62574  0.27003  1.0000
  C   C298      1.0  0.71530  0.97024  0.34469  1.0000
  C   C299      1.0  0.69627  0.93544  0.33175  1.0000
  C   C300      1.0  0.71362  0.91851  0.30956  1.0000
  N   N60       1.0  0.69806  0.88802  0.27017  1.0000
  H   H179      1.0  0.67497  0.87685  0.25420  1.0000
  H   H180      1.0  0.84556  0.63694  0.25449  1.0000
  H   H181      1.0  0.81837  0.53202  0.35785  1.0000
  H   H182      1.0  0.70212  0.98172  0.35800  1.0000
  C   C301      1.0  0.66074  0.74601  0.35625  1.0000
  C   C302      1.0  0.64880  0.74825  0.44349  1.0000
  C   C303      1.0  0.61802  0.74799  0.45296  1.0000
  C   C304      1.0  0.59947  0.74749  0.37555  1.0000
  C   C305      1.0  0.60885  0.75183  0.54166  1.0000
  N   N61       1.0  0.62835  0.75529  0.61314  1.0000
  C   C306      1.0  0.65733  0.75577  0.60301  1.0000
  O   O19       1.0  0.58018  0.75117  0.56075  1.0000
  N   N62       1.0  0.66737  0.75249  0.51954  1.0000
  H   H183      1.0  0.67137  0.75843  0.65876  1.0000
  H   H184      1.0  0.68813  0.75242  0.51605  1.0000
  C   C307      1.0  0.76274  0.91421  0.34430  1.0000
  C   C308      1.0  0.75347  0.89533  0.42594  1.0000
  C   C309      1.0  0.75391  0.86488  0.43176  1.0000
  C   C310      1.0  0.76337  0.85239  0.35617  1.0000
  C   C311      1.0  0.74325  0.84736  0.51486  1.0000
  N   N63       1.0  0.73345  0.85925  0.58428  1.0000
  C   C312      1.0  0.73300  0.88784  0.57732  1.0000
  O   O20       1.0  0.74402  0.81931  0.53242  1.0000
  N   N64       1.0  0.74293  0.90550  0.49951  1.0000
  H   H185      1.0  0.72569  0.89617  0.63156  1.0000
  H   H186      1.0  0.74330  0.92649  0.49893  1.0000
  C   C313      1.0  0.60047  0.85461  0.37036  1.0000
  C   C314      1.0  0.61983  0.87138  0.44793  1.0000
  C   C315      1.0  0.65051  0.90201  0.43887  1.0000
  C   C316      1.0  0.66162  0.91709  0.35209  1.0000
  C   C317      1.0  0.66918  0.91482  0.51955  1.0000
  N   N65       1.0  0.65819  0.89884  0.59926  1.0000
  C   C318      1.0  0.62945  0.86994  0.60579  1.0000
  O   O21       1.0  0.69755  0.94419  0.52494  1.0000
  N   N66       1.0  0.61068  0.85645  0.53108  1.0000
  H   H187      1.0  0.58993  0.83575  0.53901  1.0000
  C   C319      1.0  0.85977  0.76760  0.35639  1.0000
  C   C320      1.0  0.87191  0.76568  0.44363  1.0000
  C   C321      1.0  0.90274  0.76602  0.45314  1.0000
  C   C322      1.0  0.92107  0.76623  0.37561  1.0000
  C   C323      1.0  0.91206  0.76246  0.54190  1.0000
  N   N67       1.0  0.89266  0.75920  0.61346  1.0000
  C   C324      1.0  0.86363  0.75863  0.60333  1.0000
  O   O22       1.0  0.94079  0.76323  0.56095  1.0000
  N   N68       1.0  0.85345  0.76163  0.51977  1.0000
  H   H188      1.0  0.84966  0.75610  0.65912  1.0000
  H   H189      1.0  0.83261  0.76156  0.51627  1.0000
  C   C325      1.0  0.75764  0.59946  0.34392  1.0000
  C   C326      1.0  0.76638  0.61784  0.42636  1.0000
  C   C327      1.0  0.76585  0.64825  0.43277  1.0000
  C   C328      1.0  0.75689  0.66109  0.35699  1.0000
  C   C329      1.0  0.77611  0.66544  0.51640  1.0000
  N   N69       1.0  0.78554  0.65324  0.58592  1.0000
  C   C330      1.0  0.78604  0.62468  0.57848  1.0000
  O   O23       1.0  0.77536  0.69347  0.53427  1.0000
  N   N70       1.0  0.77655  0.60737  0.50004  1.0000
  H   H190      1.0  0.79308  0.61612  0.63278  1.0000
  H   H191      1.0  0.77626  0.58642  0.49903  1.0000
  C   C331      1.0  0.92009  0.65913  0.36999  1.0000
  C   C332      1.0  0.90078  0.64232  0.44766  1.0000
  C   C333      1.0  0.87004  0.61174  0.43865  1.0000
  C   C334      1.0  0.85883  0.59663  0.35195  1.0000
  C   C335      1.0  0.85135  0.59902  0.51934  1.0000
  N   N71       1.0  0.86244  0.61494  0.59908  1.0000
  C   C336      1.0  0.89127  0.64374  0.60562  1.0000
  O   O24       1.0  0.82290  0.56973  0.52477  1.0000
  N   N72       1.0  0.91003  0.65721  0.53085  1.0000
  H   H192      1.0  0.93084  0.67783  0.53879  1.0000
