data_image0
_chemical_formula_structural       C3NC3NC5NC5NC20H18N4C3NC3NC5NC5NC20H18N4C3NC3NC5NC5NC20H18N4C3NC3NC5NC5NC20H18N4C3NC3NC5NC5NC20H18N4C3NC3NC5NC5NC20H18N4C3H3CHC3H3CHC3H3CHC3H3CHC3H3CHC3H3CHC3H4CHC3H4CHC3H4CHC3H4CHC3H4CHC3H4CHC8H8C8H8C8H8C8H8C8H8C8H8C3NC2NHCH2CHC3NC2NHCH2CHC3NC2NHCH2CHC3NC2NHCH2CHC3NC2NHCH2CHC3NC2NHCH2CHC3NC2NHCHCHC3NC2NHCHCHC3NC2NHCHCHC3NC2NHCHCHC3NC2NHCHCHC3NC2NHCHCH
_chemical_formula_sum              "C396 N72 H252"
_cell_length_a       69.3767
_cell_length_b       69.3766
_cell_length_c       14.8852
_cell_angle_alpha    90.0046
_cell_angle_beta     89.9098
_cell_angle_gamma    120

_space_group_name_H-M_alt    "P 1"
_space_group_IT_number       1

loop_
  _space_group_symop_operation_xyz
  'x, y, z'

loop_
  _atom_site_type_symbol
  _atom_site_label
  _atom_site_symmetry_multiplicity
  _atom_site_fract_x
  _atom_site_fract_y
  _atom_site_fract_z
  _atom_site_occupancy
  C   C1        1.0  0.21297  0.37780  0.32155  1.0000
  C   C2        1.0  0.23290  0.37777  0.32331  1.0000
  C   C3        1.0  0.25034  0.39981  0.32362  1.0000
  N   N1        1.0  0.24023  0.41230  0.32241  1.0000
  C   C4        1.0  0.21764  0.39987  0.32131  1.0000
  C   C5        1.0  0.20134  0.40669  0.32026  1.0000
  C   C6        1.0  0.20638  0.42927  0.32131  1.0000
  N   N2        1.0  0.22664  0.44791  0.32123  1.0000
  C   C7        1.0  0.22517  0.46664  0.32282  1.0000
  C   C8        1.0  0.20248  0.45960  0.32411  1.0000
  C   C9        1.0  0.19093  0.43662  0.32323  1.0000
  C   C10       1.0  0.24278  0.48909  0.32303  1.0000
  C   C11       1.0  0.26581  0.49580  0.32206  1.0000
  N   N3        1.0  0.27578  0.48325  0.32186  1.0000
  C   C12       1.0  0.29830  0.49575  0.32160  1.0000
  C   C13       1.0  0.30306  0.51785  0.32102  1.0000
  C   C14       1.0  0.28320  0.51788  0.32150  1.0000
  C   C15       1.0  0.31457  0.48897  0.32204  1.0000
  C   C16       1.0  0.30967  0.46650  0.32273  1.0000
  N   N4        1.0  0.28945  0.44780  0.32305  1.0000
  C   C17       1.0  0.29101  0.42913  0.32424  1.0000
  C   C18       1.0  0.31380  0.43643  0.32438  1.0000
  C   C19       1.0  0.32527  0.45940  0.32356  1.0000
  C   C20       1.0  0.27344  0.40657  0.32505  1.0000
  C   C21       1.0  0.27983  0.38986  0.32829  1.0000
  C   C22       1.0  0.29944  0.36199  0.33323  1.0000
  C   C23       1.0  0.29292  0.36723  0.25081  1.0000
  C   C24       1.0  0.28338  0.38105  0.24835  1.0000
  C   C25       1.0  0.33740  0.50608  0.32304  1.0000
  C   C26       1.0  0.38121  0.54384  0.32442  1.0000
  C   C27       1.0  0.37071  0.53365  0.24277  1.0000
  C   C28       1.0  0.34904  0.51507  0.24184  1.0000
  C   C29       1.0  0.23713  0.50625  0.32510  1.0000
  C   C30       1.0  0.23572  0.51626  0.24457  1.0000
  C   C31       1.0  0.23302  0.53507  0.24694  1.0000
  C   C32       1.0  0.23171  0.54435  0.32987  1.0000
  C   C33       1.0  0.17821  0.39002  0.31864  1.0000
  C   C34       1.0  0.16594  0.38492  0.23779  1.0000
  C   C35       1.0  0.13070  0.36221  0.31881  1.0000
  C   C36       1.0  0.14257  0.37124  0.23808  1.0000
  H   H1        1.0  0.13417  0.36845  0.17867  1.0000
  H   H2        1.0  0.17386  0.39191  0.17851  1.0000
  H   H3        1.0  0.19761  0.36379  0.32096  1.0000
  H   H4        1.0  0.23421  0.36373  0.32396  1.0000
  H   H5        1.0  0.24823  0.42827  0.32256  1.0000
  H   H6        1.0  0.26777  0.46728  0.32280  1.0000
  H   H7        1.0  0.17398  0.42707  0.32452  1.0000
  H   H8        1.0  0.19529  0.46934  0.32569  1.0000
  H   H9        1.0  0.23751  0.51044  0.18376  1.0000
  H   H10       1.0  0.23284  0.54237  0.18758  1.0000
  H   H11       1.0  0.28200  0.53198  0.32155  1.0000
  H   H12       1.0  0.31837  0.53192  0.32075  1.0000
  H   H13       1.0  0.32118  0.42684  0.32481  1.0000
  H   H14       1.0  0.34222  0.46912  0.32354  1.0000
  H   H15       1.0  0.34158  0.50855  0.18146  1.0000
  H   H16       1.0  0.37857  0.54010  0.18283  1.0000
  H   H17       1.0  0.27976  0.38529  0.18739  1.0000
  H   H18       1.0  0.29573  0.36168  0.19141  1.0000
  N   N5        1.0  0.40131  0.56203  0.31905  1.0000
  N   N6        1.0  0.23060  0.56290  0.33789  1.0000
  N   N7        1.0  0.10839  0.35062  0.31398  1.0000
  N   N8        1.0  0.30976  0.35012  0.34126  1.0000
  C   C37       1.0  0.69248  0.83709  0.32270  1.0000
  C   C38       1.0  0.69251  0.85706  0.32438  1.0000
  C   C39       1.0  0.67047  0.85244  0.32462  1.0000
  N   N9        1.0  0.65799  0.82985  0.32347  1.0000
  C   C40       1.0  0.67042  0.81969  0.32244  1.0000
  C   C41       1.0  0.66360  0.79657  0.32145  1.0000
  C   C42       1.0  0.64102  0.77903  0.32251  1.0000
  N   N10       1.0  0.62238  0.78064  0.32247  1.0000
  C   C43       1.0  0.60365  0.76044  0.32403  1.0000
  C   C44       1.0  0.61070  0.74480  0.32524  1.0000
  C   C45       1.0  0.63367  0.75623  0.32442  1.0000
  C   C46       1.0  0.58119  0.75559  0.32427  1.0000
  C   C47       1.0  0.57448  0.77191  0.32333  1.0000
  N   N11       1.0  0.58703  0.79443  0.32305  1.0000
  C   C48       1.0  0.57453  0.80446  0.32275  1.0000
  C   C49       1.0  0.55243  0.78711  0.32235  1.0000
  C   C50       1.0  0.55240  0.76722  0.32290  1.0000
  C   C51       1.0  0.58131  0.82750  0.32299  1.0000
  C   C52       1.0  0.60378  0.84508  0.32360  1.0000
  N   N12       1.0  0.62248  0.84356  0.32399  1.0000
  C   C53       1.0  0.64115  0.86379  0.32507  1.0000
  C   C54       1.0  0.63385  0.87928  0.32505  1.0000
  C   C55       1.0  0.61087  0.86778  0.32427  1.0000
  C   C56       1.0  0.66371  0.86878  0.32591  1.0000
  C   C57       1.0  0.68041  0.89189  0.32905  1.0000
  C   C58       1.0  0.70829  0.93936  0.33375  1.0000
  C   C59       1.0  0.70310  0.92756  0.25140  1.0000
  C   C60       1.0  0.68930  0.90421  0.24905  1.0000
  C   C61       1.0  0.56420  0.83322  0.32384  1.0000
  C   C62       1.0  0.52644  0.83927  0.32498  1.0000
  C   C63       1.0  0.53670  0.83896  0.24340  1.0000
  C   C64       1.0  0.55528  0.83587  0.24258  1.0000
  C   C65       1.0  0.56403  0.73278  0.32632  1.0000
  C   C66       1.0  0.55405  0.72138  0.24579  1.0000
  C   C67       1.0  0.53525  0.69986  0.24816  1.0000
  C   C68       1.0  0.52596  0.68925  0.33109  1.0000
  C   C69       1.0  0.68028  0.79012  0.31983  1.0000
  C   C70       1.0  0.68545  0.78297  0.23896  1.0000
  C   C71       1.0  0.70810  0.77043  0.31998  1.0000
  C   C72       1.0  0.69911  0.77327  0.23926  1.0000
  H   H19       1.0  0.70197  0.76769  0.17983  1.0000
  H   H20       1.0  0.67850  0.78390  0.17968  1.0000
  H   H21       1.0  0.70650  0.83574  0.32214  1.0000
  H   H22       1.0  0.70655  0.87240  0.32498  1.0000
  H   H23       1.0  0.64201  0.82188  0.32356  1.0000
  H   H24       1.0  0.60300  0.80240  0.32368  1.0000
  H   H25       1.0  0.64322  0.74882  0.32556  1.0000
  H   H26       1.0  0.60095  0.72786  0.32677  1.0000
  H   H27       1.0  0.55989  0.72900  0.18499  1.0000
  H   H28       1.0  0.52796  0.69239  0.18882  1.0000
  H   H29       1.0  0.53831  0.75193  0.32302  1.0000
  H   H30       1.0  0.53836  0.78836  0.32206  1.0000
  H   H31       1.0  0.64342  0.89624  0.32540  1.0000
  H   H32       1.0  0.60115  0.87501  0.32416  1.0000
  H   H33       1.0  0.56186  0.83493  0.18224  1.0000
  H   H34       1.0  0.53030  0.84037  0.18341  1.0000
  H   H35       1.0  0.68510  0.89632  0.18814  1.0000
  H   H36       1.0  0.70873  0.93591  0.19197  1.0000
  N   N13       1.0  0.50825  0.84117  0.31950  1.0000
  N   N14       1.0  0.50739  0.66961  0.33913  1.0000
  N   N15       1.0  0.71968  0.75970  0.31513  1.0000
  N   N16       1.0  0.72017  0.96156  0.34166  1.0000
  C   C73       1.0  0.23321  0.85732  0.32071  1.0000
  C   C74       1.0  0.21324  0.83738  0.32237  1.0000
  C   C75       1.0  0.21786  0.81995  0.32268  1.0000
  N   N17       1.0  0.24045  0.83006  0.32161  1.0000
  C   C76       1.0  0.25061  0.85265  0.32057  1.0000
  C   C77       1.0  0.27373  0.86895  0.31966  1.0000
  C   C78       1.0  0.29126  0.86391  0.32084  1.0000
  N   N18       1.0  0.28966  0.84365  0.32076  1.0000
  C   C79       1.0  0.30985  0.84513  0.32249  1.0000
  C   C80       1.0  0.32549  0.86781  0.32387  1.0000
  C   C81       1.0  0.31406  0.87936  0.32292  1.0000
  C   C82       1.0  0.31470  0.82752  0.32275  1.0000
  C   C83       1.0  0.29838  0.80449  0.32166  1.0000
  N   N19       1.0  0.27586  0.79452  0.32127  1.0000
  C   C84       1.0  0.26584  0.77199  0.32090  1.0000
  C   C85       1.0  0.28319  0.76724  0.32053  1.0000
  C   C86       1.0  0.30307  0.78709  0.32119  1.0000
  C   C87       1.0  0.24279  0.75572  0.32108  1.0000
  C   C88       1.0  0.22521  0.76062  0.32167  1.0000
  N   N20       1.0  0.22673  0.78084  0.32205  1.0000
  C   C89       1.0  0.20650  0.77928  0.32313  1.0000
  C   C90       1.0  0.19101  0.75648  0.32310  1.0000
  C   C91       1.0  0.20251  0.74501  0.32231  1.0000
  C   C92       1.0  0.20151  0.79684  0.32397  1.0000
  C   C93       1.0  0.17840  0.79044  0.32710  1.0000
  C   C94       1.0  0.13093  0.77086  0.33205  1.0000
  C   C95       1.0  0.14275  0.77739  0.24962  1.0000
  C   C96       1.0  0.16611  0.78695  0.24716  1.0000
  C   C97       1.0  0.23707  0.73289  0.32198  1.0000
  C   C98       1.0  0.23099  0.68907  0.32331  1.0000
  C   C99       1.0  0.23140  0.69964  0.24168  1.0000
  C   C100      1.0  0.23449  0.72132  0.24077  1.0000
  C   C101      1.0  0.33751  0.83317  0.32502  1.0000
  C   C102      1.0  0.34902  0.83462  0.24464  1.0000
  C   C103      1.0  0.37055  0.83736  0.24724  1.0000
  C   C104      1.0  0.38103  0.83861  0.33029  1.0000
  C   C105      1.0  0.28019  0.89208  0.31809  1.0000
  C   C106      1.0  0.28746  0.90442  0.23731  1.0000
  C   C107      1.0  0.29987  0.93959  0.31842  1.0000
  C   C108      1.0  0.29715  0.92779  0.23769  1.0000
  H   H37       1.0  0.30280  0.93625  0.17831  1.0000
  H   H38       1.0  0.28659  0.89656  0.17802  1.0000
  H   H39       1.0  0.23456  0.87267  0.32012  1.0000
  H   H40       1.0  0.19790  0.83607  0.32288  1.0000
  H   H41       1.0  0.24842  0.82206  0.32181  1.0000
  H   H42       1.0  0.26789  0.80252  0.32193  1.0000
  H   H43       1.0  0.32147  0.89632  0.32421  1.0000
  H   H44       1.0  0.34243  0.87500  0.32555  1.0000
  H   H45       1.0  0.34150  0.83291  0.18373  1.0000
  H   H46       1.0  0.37811  0.83758  0.18797  1.0000
  H   H47       1.0  0.31837  0.78829  0.32138  1.0000
  H   H48       1.0  0.28194  0.75192  0.32022  1.0000
  H   H49       1.0  0.17405  0.74910  0.32346  1.0000
  H   H50       1.0  0.19528  0.72806  0.32222  1.0000
  H   H51       1.0  0.23552  0.72884  0.18039  1.0000
  H   H52       1.0  0.23007  0.69184  0.18172  1.0000
  H   H53       1.0  0.17400  0.79059  0.18621  1.0000
  H   H54       1.0  0.13442  0.77463  0.19022  1.0000
  N   N21       1.0  0.22910  0.66898  0.31793  1.0000
  N   N22       1.0  0.40066  0.83968  0.33855  1.0000
  N   N23       1.0  0.31061  0.96190  0.31369  1.0000
  N   N24       1.0  0.10873  0.76052  0.34008  1.0000
  C   C109      1.0  0.87946  0.67033  0.32231  1.0000
  C   C110      1.0  0.85953  0.67036  0.32421  1.0000
  C   C111      1.0  0.84210  0.64832  0.32470  1.0000
  N   N25       1.0  0.85220  0.63583  0.32353  1.0000
  C   C112      1.0  0.87480  0.64827  0.32225  1.0000
  C   C113      1.0  0.89110  0.64145  0.32120  1.0000
  C   C114      1.0  0.88605  0.61887  0.32243  1.0000
  N   N26       1.0  0.86580  0.60022  0.32258  1.0000
  C   C115      1.0  0.86727  0.58150  0.32427  1.0000
  C   C116      1.0  0.88996  0.58854  0.32541  1.0000
  C   C117      1.0  0.90150  0.61152  0.32435  1.0000
  C   C118      1.0  0.84967  0.55904  0.32471  1.0000
  C   C119      1.0  0.82663  0.55233  0.32387  1.0000
  N   N27       1.0  0.81666  0.56488  0.32366  1.0000
  C   C120      1.0  0.79414  0.55238  0.32346  1.0000
  C   C121      1.0  0.78939  0.53028  0.32303  1.0000
  C   C122      1.0  0.80924  0.53025  0.32346  1.0000
  C   C123      1.0  0.77787  0.55916  0.32382  1.0000
  C   C124      1.0  0.78276  0.58163  0.32438  1.0000
  N   N28       1.0  0.80299  0.60033  0.32457  1.0000
  C   C125      1.0  0.80142  0.61900  0.32564  1.0000
  C   C126      1.0  0.77863  0.61170  0.32583  1.0000
  C   C127      1.0  0.76716  0.58873  0.32517  1.0000
  C   C128      1.0  0.81899  0.64156  0.32627  1.0000
  C   C129      1.0  0.81260  0.65827  0.32935  1.0000
  C   C130      1.0  0.79301  0.68615  0.33413  1.0000
  C   C131      1.0  0.79958  0.68091  0.25175  1.0000
  C   C132      1.0  0.80915  0.66711  0.24937  1.0000
  C   C133      1.0  0.75504  0.54205  0.32487  1.0000
  C   C134      1.0  0.71123  0.50429  0.32632  1.0000
  C   C135      1.0  0.72178  0.51452  0.24465  1.0000
  C   C136      1.0  0.74346  0.53308  0.24368  1.0000
  C   C137      1.0  0.85531  0.54188  0.32677  1.0000
  C   C138      1.0  0.85678  0.53189  0.24627  1.0000
  C   C139      1.0  0.85949  0.51309  0.24868  1.0000
  C   C140      1.0  0.86075  0.50380  0.33164  1.0000
  C   C141      1.0  0.91422  0.65812  0.31934  1.0000
  C   C142      1.0  0.92653  0.66319  0.23840  1.0000
  C   C143      1.0  0.96175  0.68591  0.31905  1.0000
  C   C144      1.0  0.94989  0.67686  0.23846  1.0000
  H   H55       1.0  0.95832  0.67966  0.17898  1.0000
  H   H56       1.0  0.91863  0.65621  0.17920  1.0000
  H   H57       1.0  0.89482  0.68434  0.32164  1.0000
  H   H58       1.0  0.85822  0.68440  0.32477  1.0000
  H   H59       1.0  0.84420  0.61986  0.32386  1.0000
  H   H60       1.0  0.82466  0.58085  0.32439  1.0000
  H   H61       1.0  0.91846  0.62106  0.32545  1.0000
  H   H62       1.0  0.89715  0.57879  0.32700  1.0000
  H   H63       1.0  0.85507  0.53775  0.18545  1.0000
  H   H64       1.0  0.85975  0.50582  0.18934  1.0000
  H   H65       1.0  0.81044  0.51615  0.32355  1.0000
  H   H66       1.0  0.77407  0.51621  0.32280  1.0000
  H   H67       1.0  0.77125  0.62128  0.32620  1.0000
  H   H68       1.0  0.75021  0.57901  0.32521  1.0000
  H   H69       1.0  0.75097  0.53963  0.18329  1.0000
  H   H70       1.0  0.71398  0.50807  0.18472  1.0000
  H   H71       1.0  0.81278  0.66286  0.18844  1.0000
  H   H72       1.0  0.79682  0.68648  0.19232  1.0000
  N   N29       1.0  0.69113  0.48610  0.32098  1.0000
  N   N30       1.0  0.86184  0.48524  0.33971  1.0000
  N   N31       1.0  0.98405  0.69749  0.31402  1.0000
  N   N32       1.0  0.78266  0.69801  0.34207  1.0000
  C   C145      1.0  0.39997  0.21106  0.32285  1.0000
  C   C146      1.0  0.39993  0.19109  0.32453  1.0000
  C   C147      1.0  0.42198  0.19570  0.32512  1.0000
  N   N33       1.0  0.43447  0.21829  0.32415  1.0000
  C   C148      1.0  0.42203  0.22846  0.32293  1.0000
  C   C149      1.0  0.42886  0.25158  0.32204  1.0000
  C   C150      1.0  0.45143  0.26911  0.32340  1.0000
  N   N34       1.0  0.47008  0.26750  0.32350  1.0000
  C   C151      1.0  0.48881  0.28770  0.32534  1.0000
  C   C152      1.0  0.48176  0.30334  0.32662  1.0000
  C   C153      1.0  0.45878  0.29191  0.32546  1.0000
  C   C154      1.0  0.51126  0.29254  0.32576  1.0000
  C   C155      1.0  0.51797  0.27622  0.32479  1.0000
  N   N35       1.0  0.50542  0.25370  0.32452  1.0000
  C   C156      1.0  0.51791  0.24367  0.32422  1.0000
  C   C157      1.0  0.54002  0.26102  0.32372  1.0000
  C   C158      1.0  0.54005  0.28091  0.32427  1.0000
  C   C159      1.0  0.51114  0.22062  0.32454  1.0000
  C   C160      1.0  0.48866  0.20305  0.32498  1.0000
  N   N36       1.0  0.46996  0.20457  0.32511  1.0000
  C   C161      1.0  0.45129  0.18434  0.32605  1.0000
  C   C162      1.0  0.45859  0.16885  0.32622  1.0000
  C   C163      1.0  0.48157  0.18035  0.32568  1.0000
  C   C164      1.0  0.42873  0.17935  0.32657  1.0000
  C   C165      1.0  0.41202  0.15625  0.32947  1.0000
  C   C166      1.0  0.38414  0.10877  0.33378  1.0000
  C   C167      1.0  0.38947  0.12063  0.25150  1.0000
  C   C168      1.0  0.40329  0.14399  0.24936  1.0000
  C   C169      1.0  0.52825  0.21491  0.32550  1.0000
  C   C170      1.0  0.56600  0.20885  0.32672  1.0000
  C   C171      1.0  0.55580  0.20915  0.24512  1.0000
  C   C172      1.0  0.53721  0.21225  0.24426  1.0000
  C   C173      1.0  0.52842  0.31535  0.32793  1.0000
  C   C174      1.0  0.53845  0.32682  0.24744  1.0000
  C   C175      1.0  0.55725  0.34834  0.24988  1.0000
  C   C176      1.0  0.56651  0.35886  0.33285  1.0000
  C   C177      1.0  0.41219  0.25804  0.32021  1.0000
  C   C178      1.0  0.40718  0.26528  0.23930  1.0000
  C   C179      1.0  0.38438  0.27774  0.32004  1.0000
  C   C180      1.0  0.39350  0.27496  0.23942  1.0000
  H   H73       1.0  0.39076  0.28062  0.17998  1.0000
  H   H74       1.0  0.41422  0.26439  0.18011  1.0000
  H   H75       1.0  0.38596  0.21241  0.32209  1.0000
  H   H76       1.0  0.38590  0.17575  0.32497  1.0000
  H   H77       1.0  0.45044  0.22626  0.32452  1.0000
  H   H78       1.0  0.48945  0.24573  0.32547  1.0000
  H   H79       1.0  0.44924  0.29932  0.32669  1.0000
  H   H80       1.0  0.49151  0.32028  0.32835  1.0000
  H   H81       1.0  0.53263  0.31926  0.18659  1.0000
  H   H82       1.0  0.56457  0.35586  0.19054  1.0000
  H   H83       1.0  0.55415  0.29620  0.32434  1.0000
  H   H84       1.0  0.55408  0.25977  0.32342  1.0000
  H   H85       1.0  0.44901  0.15189  0.32649  1.0000
  H   H86       1.0  0.49128  0.17312  0.32573  1.0000
  H   H87       1.0  0.53068  0.21319  0.18391  1.0000
  H   H88       1.0  0.56223  0.20774  0.18515  1.0000
  H   H89       1.0  0.40760  0.15192  0.18850  1.0000
  H   H90       1.0  0.38399  0.11233  0.19198  1.0000
  N   N37       1.0  0.58419  0.20694  0.32127  1.0000
  N   N38       1.0  0.58506  0.37851  0.34092  1.0000
  N   N39       1.0  0.37280  0.28846  0.31506  1.0000
  N   N40       1.0  0.37226  0.08656  0.34152  1.0000
  C   C181      1.0  0.85924  0.19082  0.32225  1.0000
  C   C182      1.0  0.87921  0.21076  0.32390  1.0000
  C   C183      1.0  0.87459  0.22819  0.32422  1.0000
  N   N41       1.0  0.85200  0.21808  0.32316  1.0000
  C   C184      1.0  0.84184  0.19549  0.32212  1.0000
  C   C185      1.0  0.81872  0.17918  0.32121  1.0000
  C   C186      1.0  0.80119  0.18422  0.32247  1.0000
  N   N42       1.0  0.80279  0.20447  0.32252  1.0000
  C   C187      1.0  0.78259  0.20300  0.32427  1.0000
  C   C188      1.0  0.76695  0.18031  0.32552  1.0000
  C   C189      1.0  0.77839  0.16877  0.32452  1.0000
  C   C190      1.0  0.77773  0.22060  0.32466  1.0000
  C   C191      1.0  0.79405  0.24363  0.32364  1.0000
  N   N43       1.0  0.81657  0.25361  0.32317  1.0000
  C   C192      1.0  0.82660  0.27613  0.32285  1.0000
  C   C193      1.0  0.80924  0.28088  0.32264  1.0000
  C   C194      1.0  0.78936  0.26102  0.32332  1.0000
  C   C195      1.0  0.84964  0.29241  0.32294  1.0000
  C   C196      1.0  0.86722  0.28751  0.32341  1.0000
  N   N44       1.0  0.86570  0.26729  0.32377  1.0000
  C   C197      1.0  0.88594  0.26886  0.32473  1.0000
  C   C198      1.0  0.90143  0.29165  0.32466  1.0000
  C   C199      1.0  0.88992  0.30312  0.32397  1.0000
  C   C200      1.0  0.89093  0.25130  0.32550  1.0000
  C   C201      1.0  0.91404  0.25770  0.32859  1.0000
  C   C202      1.0  0.96150  0.27729  0.33320  1.0000
  C   C203      1.0  0.94972  0.27072  0.25088  1.0000
  C   C204      1.0  0.92637  0.26116  0.24857  1.0000
  C   C205      1.0  0.85535  0.31523  0.32385  1.0000
  C   C206      1.0  0.86139  0.35904  0.32518  1.0000
  C   C207      1.0  0.86105  0.34850  0.24354  1.0000
  C   C208      1.0  0.85797  0.32683  0.24263  1.0000
  C   C209      1.0  0.75493  0.21495  0.32696  1.0000
  C   C210      1.0  0.74349  0.21353  0.24657  1.0000
  C   C211      1.0  0.72197  0.21082  0.24917  1.0000
  C   C212      1.0  0.71140  0.20949  0.33222  1.0000
  C   C213      1.0  0.81227  0.15606  0.31954  1.0000
  C   C214      1.0  0.80512  0.14378  0.23866  1.0000
  C   C215      1.0  0.79259  0.10854  0.31959  1.0000
  C   C216      1.0  0.79542  0.12041  0.23891  1.0000
  H   H91       1.0  0.78983  0.11200  0.17949  1.0000
  H   H92       1.0  0.80604  0.15169  0.17941  1.0000
  H   H93       1.0  0.85790  0.17547  0.32165  1.0000
  H   H94       1.0  0.89455  0.21207  0.32442  1.0000
  H   H95       1.0  0.84403  0.22608  0.32333  1.0000
  H   H96       1.0  0.82454  0.24561  0.32368  1.0000
  H   H97       1.0  0.77098  0.15181  0.32565  1.0000
  H   H98       1.0  0.75001  0.17311  0.32718  1.0000
  H   H99       1.0  0.75108  0.21533  0.18567  1.0000
  H   H100      1.0  0.71448  0.21065  0.18991  1.0000
  H   H101      1.0  0.77406  0.25982  0.32360  1.0000
  H   H102      1.0  0.81049  0.29620  0.32241  1.0000
  H   H103      1.0  0.91839  0.29904  0.32491  1.0000
  H   H104      1.0  0.89715  0.32007  0.32385  1.0000
  H   H105      1.0  0.85699  0.31933  0.18225  1.0000
  H   H106      1.0  0.86243  0.35632  0.18358  1.0000
  H   H107      1.0  0.91849  0.25750  0.18767  1.0000
  H   H108      1.0  0.95807  0.27345  0.19143  1.0000
  N   N45       1.0  0.86329  0.37914  0.31981  1.0000
  N   N46       1.0  0.69177  0.20844  0.34047  1.0000
  N   N47       1.0  0.78186  0.08624  0.31472  1.0000
  N   N48       1.0  0.98370  0.28761  0.34108  1.0000
  C   C217      1.0  0.22678  0.59421  0.30950  1.0000
  C   C218      1.0  0.23173  0.61078  0.24370  1.0000
  C   C219      1.0  0.23279  0.63103  0.26532  1.0000
  H   H109      1.0  0.23695  0.64260  0.21536  1.0000
  H   H110      1.0  0.23502  0.60844  0.17873  1.0000
  H   H111      1.0  0.22045  0.57613  0.00786  1.0000
  C   C220      1.0  0.22618  0.57456  0.28341  1.0000
  H   H112      1.0  0.22267  0.56969  0.21980  1.0000
  C   C221      1.0  0.47609  0.63449  0.31071  1.0000
  C   C222      1.0  0.45955  0.62288  0.24489  1.0000
  C   C223      1.0  0.43928  0.60370  0.26648  1.0000
  H   H113      1.0  0.42775  0.59631  0.21650  1.0000
  H   H114      1.0  0.46194  0.62850  0.17992  1.0000
  H   H115      1.0  0.49412  0.64619  0.00910  1.0000
  C   C224      1.0  0.49576  0.65352  0.28465  1.0000
  H   H116      1.0  0.50069  0.65486  0.22107  1.0000
  C   C225      1.0  0.43582  0.84352  0.31050  1.0000
  C   C226      1.0  0.44751  0.83861  0.24478  1.0000
  C   C227      1.0  0.46665  0.83750  0.26655  1.0000
  H   H117      1.0  0.47411  0.83337  0.21664  1.0000
  H   H118      1.0  0.44196  0.83540  0.17976  1.0000
  H   H119      1.0  0.42388  0.84974  0.00878  1.0000
  C   C228      1.0  0.41683  0.84418  0.28426  1.0000
  H   H120      1.0  0.41559  0.84782  0.22069  1.0000
  C   C229      1.0  0.86566  0.45393  0.31136  1.0000
  C   C230      1.0  0.86076  0.43738  0.24556  1.0000
  C   C231      1.0  0.85964  0.41711  0.26720  1.0000
  H   H121      1.0  0.85553  0.40556  0.21723  1.0000
  H   H122      1.0  0.85754  0.43975  0.18058  1.0000
  H   H123      1.0  0.87198  0.47200  0.00971  1.0000
  C   C232      1.0  0.86632  0.47360  0.28526  1.0000
  H   H124      1.0  0.86989  0.47849  0.22164  1.0000
  C   C233      1.0  0.61637  0.41365  0.31257  1.0000
  C   C234      1.0  0.63296  0.42530  0.24675  1.0000
  C   C235      1.0  0.65321  0.44446  0.26837  1.0000
  H   H125      1.0  0.66479  0.45188  0.21839  1.0000
  H   H126      1.0  0.63062  0.41970  0.18178  1.0000
  H   H127      1.0  0.59830  0.40191  0.01096  1.0000
  C   C236      1.0  0.59672  0.39464  0.28650  1.0000
  H   H128      1.0  0.59183  0.39334  0.22294  1.0000
  C   C237      1.0  0.65663  0.20462  0.31237  1.0000
  C   C238      1.0  0.64502  0.20956  0.24662  1.0000
  C   C239      1.0  0.62586  0.21068  0.26835  1.0000
  H   H129      1.0  0.61846  0.21483  0.21842  1.0000
  H   H130      1.0  0.65063  0.21280  0.18160  1.0000
  H   H131      1.0  0.66850  0.19837  0.01069  1.0000
  C   C240      1.0  0.67565  0.20395  0.28617  1.0000
  H   H132      1.0  0.67694  0.20032  0.22262  1.0000
  C   C241      1.0  0.02271  0.30498  0.31126  1.0000
  C   C242      1.0  0.03913  0.31311  0.24267  1.0000
  C   C243      1.0  0.06208  0.32431  0.26207  1.0000
  H   H133      1.0  0.07302  0.32950  0.20929  1.0000
  H   H134      1.0  0.03454  0.31086  0.17642  1.0000
  H   H135      1.0  0.00777  0.31014  0.00767  1.0000
  H   H136      1.0  0.00767  0.28447  0.00743  1.0000
  C   C244      1.0  0.00012  0.29374  0.28599  1.0000
  H   H137      1.0  0.99650  0.29047  0.22122  1.0000
  C   C245      1.0  0.76530  0.71964  0.31232  1.0000
  C   C246      1.0  0.75720  0.72793  0.24375  1.0000
  C   C247      1.0  0.74600  0.73968  0.26317  1.0000
  H   H138      1.0  0.74084  0.74542  0.21040  1.0000
  H   H139      1.0  0.75949  0.72558  0.17749  1.0000
  H   H140      1.0  0.76014  0.69954  0.00877  1.0000
  H   H141      1.0  0.78582  0.72511  0.00848  1.0000
  C   C248      1.0  0.77656  0.70829  0.28702  1.0000
  H   H142      1.0  0.77986  0.70794  0.22224  1.0000
  C   C249      1.0  0.35068  0.04759  0.31142  1.0000
  C   C250      1.0  0.34243  0.03123  0.24273  1.0000
  C   C251      1.0  0.33065  0.00827  0.26198  1.0000
  H   H143      1.0  0.32493  0.99738  0.20913  1.0000
  H   H144      1.0  0.34483  0.03589  0.17651  1.0000
  H   H145      1.0  0.37070  0.06234  0.00796  1.0000
  H   H146      1.0  0.34515  0.06247  0.00773  1.0000
  C   C252      1.0  0.36207  0.07020  0.28630  1.0000
  H   H147      1.0  0.36253  0.07389  0.22153  1.0000
  C   C253      1.0  0.06974  0.74314  0.31056  1.0000
  C   C254      1.0  0.05334  0.73502  0.24210  1.0000
  C   C255      1.0  0.03039  0.72382  0.26168  1.0000
  H   H148      1.0  0.01947  0.71864  0.20899  1.0000
  H   H149      1.0  0.05796  0.73728  0.17581  1.0000
  H   H150      1.0  0.08482  0.73805  0.00689  1.0000
  H   H151      1.0  0.08493  0.76372  0.00664  1.0000
  C   C256      1.0  0.09234  0.75438  0.28511  1.0000
  H   H152      1.0  0.09598  0.75765  0.22031  1.0000
  C   C257      1.0  0.32715  0.32850  0.31171  1.0000
  C   C258      1.0  0.33531  0.32021  0.24323  1.0000
  C   C259      1.0  0.34650  0.30846  0.26280  1.0000
  H   H153      1.0  0.35170  0.30272  0.21009  1.0000
  H   H154      1.0  0.33308  0.32256  0.17696  1.0000
  H   H155      1.0  0.33226  0.34869  0.00801  1.0000
  H   H156      1.0  0.30659  0.32312  0.00779  1.0000
  C   C260      1.0  0.31592  0.33985  0.28629  1.0000
  H   H157      1.0  0.31269  0.34022  0.22149  1.0000
  C   C261      1.0  0.74180  0.00056  0.31187  1.0000
  C   C262      1.0  0.75011  0.01697  0.24330  1.0000
  C   C263      1.0  0.76187  0.03992  0.26272  1.0000
  H   H158      1.0  0.76763  0.05085  0.20995  1.0000
  H   H159      1.0  0.74778  0.01237  0.17704  1.0000
  H   H160      1.0  0.72169  0.98562  0.00832  1.0000
  H   H161      1.0  0.74725  0.98550  0.00805  1.0000
  C   C264      1.0  0.73044  0.97796  0.28658  1.0000
  H   H162      1.0  0.73006  0.97434  0.22178  1.0000
  C   C265      1.0  0.28598  0.38434  0.41074  1.0000
  C   C266      1.0  0.29557  0.37059  0.41298  1.0000
  C   C267      1.0  0.34796  0.51591  0.40504  1.0000
  C   C268      1.0  0.36960  0.53451  0.40570  1.0000
  C   C269      1.0  0.23289  0.53414  0.41010  1.0000
  C   C270      1.0  0.23556  0.51532  0.40795  1.0000
  C   C271      1.0  0.16645  0.38080  0.39950  1.0000
  C   C272      1.0  0.14309  0.36706  0.39952  1.0000
  H   H163      1.0  0.13519  0.36139  0.45979  1.0000
  H   H164      1.0  0.17474  0.38479  0.45950  1.0000
  H   H165      1.0  0.23712  0.50874  0.46722  1.0000
  H   H166      1.0  0.23235  0.54068  0.47109  1.0000
  H   H167      1.0  0.33971  0.51000  0.46469  1.0000
  H   H168      1.0  0.37657  0.54136  0.46623  1.0000
  H   H169      1.0  0.30037  0.36744  0.47364  1.0000
  H   H170      1.0  0.28430  0.39102  0.46955  1.0000
  C   C273      1.0  0.68588  0.90358  0.41146  1.0000
  C   C274      1.0  0.69962  0.92692  0.41356  1.0000
  C   C275      1.0  0.55429  0.83396  0.40579  1.0000
  C   C276      1.0  0.53569  0.83699  0.40633  1.0000
  C   C277      1.0  0.53613  0.70064  0.41132  1.0000
  C   C278      1.0  0.55495  0.72213  0.40917  1.0000
  C   C279      1.0  0.68941  0.78755  0.40071  1.0000
  C   C280      1.0  0.70316  0.77793  0.40072  1.0000
  H   H171      1.0  0.70877  0.77567  0.46098  1.0000
  H   H172      1.0  0.68537  0.79183  0.46073  1.0000
  H   H173      1.0  0.56149  0.73027  0.46844  1.0000
  H   H174      1.0  0.52956  0.69355  0.47231  1.0000
  H   H175      1.0  0.56014  0.83161  0.46548  1.0000
  H   H176      1.0  0.52877  0.83710  0.46681  1.0000
  H   H177      1.0  0.70275  0.93489  0.47418  1.0000
  H   H178      1.0  0.67915  0.89525  0.47029  1.0000
  C   C281      1.0  0.16669  0.78426  0.40957  1.0000
  C   C282      1.0  0.14335  0.77467  0.41180  1.0000
  C   C283      1.0  0.23625  0.72226  0.40398  1.0000
  C   C284      1.0  0.23318  0.70061  0.40462  1.0000
  C   C285      1.0  0.36952  0.83735  0.41039  1.0000
  C   C286      1.0  0.34803  0.83466  0.40799  1.0000
  C   C287      1.0  0.28263  0.90376  0.39898  1.0000
  C   C288      1.0  0.29227  0.92713  0.39909  1.0000
  H   H179      1.0  0.29442  0.93498  0.45936  1.0000
  H   H180      1.0  0.27827  0.89542  0.45895  1.0000
  H   H181      1.0  0.33981  0.83304  0.46718  1.0000
  H   H182      1.0  0.37651  0.83780  0.47146  1.0000
  H   H183      1.0  0.23851  0.73046  0.46366  1.0000
  H   H184      1.0  0.23301  0.69359  0.46514  1.0000
  H   H185      1.0  0.13536  0.76985  0.47248  1.0000
  H   H186      1.0  0.17500  0.78590  0.46839  1.0000
  C   C289      1.0  0.80639  0.66378  0.41177  1.0000
  C   C290      1.0  0.79680  0.67753  0.41393  1.0000
  C   C291      1.0  0.74441  0.53219  0.40688  1.0000
  C   C292      1.0  0.72277  0.51359  0.40759  1.0000
  C   C293      1.0  0.85950  0.51398  0.41185  1.0000
  C   C294      1.0  0.85682  0.53281  0.40966  1.0000
  C   C295      1.0  0.92597  0.66732  0.40007  1.0000
  C   C296      1.0  0.94933  0.68106  0.39988  1.0000
  H   H187      1.0  0.95721  0.68674  0.46006  1.0000
  H   H188      1.0  0.91765  0.66336  0.46015  1.0000
  H   H189      1.0  0.85518  0.53934  0.46891  1.0000
  H   H190      1.0  0.85995  0.50741  0.47285  1.0000
  H   H191      1.0  0.75261  0.53810  0.46653  1.0000
  H   H192      1.0  0.71575  0.50672  0.46812  1.0000
  H   H193      1.0  0.79195  0.68067  0.47457  1.0000
  H   H194      1.0  0.80800  0.65709  0.47062  1.0000
  C   C297      1.0  0.40641  0.14448  0.41178  1.0000
  C   C298      1.0  0.39265  0.12114  0.41371  1.0000
  C   C299      1.0  0.53810  0.21418  0.40745  1.0000
  C   C300      1.0  0.55669  0.21113  0.40804  1.0000
  C   C301      1.0  0.55628  0.34741  0.41304  1.0000
  C   C302      1.0  0.53746  0.32591  0.41082  1.0000
  C   C303      1.0  0.40289  0.26051  0.40096  1.0000
  C   C304      1.0  0.38915  0.27013  0.40081  1.0000
  H   H195      1.0  0.38342  0.27232  0.46100  1.0000
  H   H196      1.0  0.40682  0.25615  0.46101  1.0000
  H   H197      1.0  0.53087  0.31774  0.47006  1.0000
  H   H198      1.0  0.56282  0.35444  0.47405  1.0000
  H   H199      1.0  0.53219  0.21650  0.46712  1.0000
  H   H200      1.0  0.56356  0.21100  0.46853  1.0000
  H   H201      1.0  0.38944  0.11312  0.47428  1.0000
  H   H202      1.0  0.41302  0.15276  0.47073  1.0000
  C   C305      1.0  0.92571  0.26389  0.41096  1.0000
  C   C306      1.0  0.94906  0.27349  0.41303  1.0000
  C   C307      1.0  0.85613  0.32584  0.40585  1.0000
  C   C308      1.0  0.85916  0.34748  0.40649  1.0000
  C   C309      1.0  0.72282  0.21071  0.41232  1.0000
  C   C310      1.0  0.74432  0.21338  0.40993  1.0000
  C   C311      1.0  0.80971  0.14431  0.40037  1.0000
  C   C312      1.0  0.80010  0.12095  0.40034  1.0000
  H   H203      1.0  0.79785  0.11305  0.46058  1.0000
  H   H204      1.0  0.81400  0.15261  0.46040  1.0000
  H   H205      1.0  0.75248  0.21497  0.46912  1.0000
  H   H206      1.0  0.71577  0.21019  0.47339  1.0000
  H   H207      1.0  0.85382  0.31763  0.46552  1.0000
  H   H208      1.0  0.85930  0.35448  0.46701  1.0000
  H   H209      1.0  0.95702  0.27831  0.47364  1.0000
  H   H210      1.0  0.91738  0.26227  0.46982  1.0000
  C   C313      1.0  0.22878  0.63565  0.35383  1.0000
  C   C314      1.0  0.22353  0.61904  0.42031  1.0000
  C   C315      1.0  0.22253  0.59855  0.39848  1.0000
  N   N49       1.0  0.21737  0.58347  0.46594  1.0000
  C   C316      1.0  0.21320  0.58662  0.55224  1.0000
  C   C317      1.0  0.21417  0.60687  0.57314  1.0000
  N   N50       1.0  0.21924  0.62208  0.50696  1.0000
  H   H211      1.0  0.21120  0.61029  0.63677  1.0000
  C   C318      1.0  0.20798  0.56935  0.62080  1.0000
  H   H212      1.0  0.20810  0.55495  0.59184  1.0000
  H   H213      1.0  0.19151  0.56385  0.64911  1.0000
  C   C319      1.0  0.23103  0.65626  0.37586  1.0000
  H   H214      1.0  0.23483  0.66153  0.43880  1.0000
  C   C320      1.0  0.43460  0.59507  0.35497  1.0000
  C   C321      1.0  0.45116  0.60641  0.42147  1.0000
  C   C322      1.0  0.47167  0.62589  0.39967  1.0000
  N   N51       1.0  0.48671  0.63580  0.46715  1.0000
  C   C323      1.0  0.48349  0.62847  0.55344  1.0000
  C   C324      1.0  0.46322  0.60920  0.57431  1.0000
  N   N52       1.0  0.44805  0.59907  0.50812  1.0000
  H   H215      1.0  0.45975  0.60281  0.63792  1.0000
  C   C325      1.0  0.50072  0.64050  0.62202  1.0000
  H   H216      1.0  0.51515  0.65502  0.59309  1.0000
  H   H217      1.0  0.50618  0.62952  0.65032  1.0000
  C   C326      1.0  0.41396  0.57672  0.37695  1.0000
  H   H218      1.0  0.40862  0.57527  0.43985  1.0000
  C   C327      1.0  0.47517  0.84141  0.35513  1.0000
  C   C328      1.0  0.46375  0.84662  0.42153  1.0000
  C   C329      1.0  0.44431  0.84767  0.39955  1.0000
  N   N53       1.0  0.43431  0.85279  0.46694  1.0000
  C   C330      1.0  0.44154  0.85686  0.55330  1.0000
  C   C331      1.0  0.46077  0.85584  0.57435  1.0000
  N   N54       1.0  0.47098  0.85082  0.50825  1.0000
  H   H219      1.0  0.46709  0.85874  0.63803  1.0000
  C   C332      1.0  0.42942  0.86205  0.62177  1.0000
  H   H220      1.0  0.41495  0.86197  0.59271  1.0000
  H   H221      1.0  0.44038  0.87848  0.65020  1.0000
  C   C333      1.0  0.49349  0.83911  0.37727  1.0000
  H   H222      1.0  0.49485  0.83518  0.44015  1.0000
  C   C334      1.0  0.86357  0.41245  0.35571  1.0000
  C   C335      1.0  0.86878  0.42904  0.42218  1.0000
  C   C336      1.0  0.86983  0.44954  0.40034  1.0000
  N   N55       1.0  0.87494  0.46461  0.46779  1.0000
  C   C337      1.0  0.87903  0.46141  0.55410  1.0000
  C   C338      1.0  0.87802  0.44114  0.57500  1.0000
  N   N56       1.0  0.87299  0.42596  0.50883  1.0000
  H   H223      1.0  0.88093  0.43769  0.63863  1.0000
  C   C339      1.0  0.88421  0.47866  0.62265  1.0000
  H   H224      1.0  0.88413  0.49308  0.59369  1.0000
  H   H225      1.0  0.90065  0.48413  0.65097  1.0000
  C   C340      1.0  0.86129  0.39182  0.37772  1.0000
  H   H226      1.0  0.85742  0.38652  0.44065  1.0000
  C   C341      1.0  0.65782  0.45305  0.35687  1.0000
  C   C342      1.0  0.64120  0.44167  0.42337  1.0000
  C   C343      1.0  0.62071  0.42221  0.40155  1.0000
  N   N57       1.0  0.60560  0.41226  0.46902  1.0000
  C   C344      1.0  0.60875  0.41955  0.55533  1.0000
  C   C345      1.0  0.62901  0.43881  0.57621  1.0000
  N   N58       1.0  0.64423  0.44897  0.51002  1.0000
  H   H227      1.0  0.63242  0.44517  0.63984  1.0000
  C   C346      1.0  0.59146  0.40749  0.62390  1.0000
  H   H228      1.0  0.57706  0.39299  0.59495  1.0000
  H   H229      1.0  0.58598  0.41846  0.65222  1.0000
  C   C347      1.0  0.67845  0.47138  0.37886  1.0000
  H   H230      1.0  0.68374  0.47279  0.44173  1.0000
  C   C348      1.0  0.61725  0.20673  0.35691  1.0000
  C   C349      1.0  0.62860  0.20149  0.42335  1.0000
  C   C350      1.0  0.64806  0.20043  0.40141  1.0000
  N   N59       1.0  0.65798  0.19528  0.46882  1.0000
  C   C351      1.0  0.65067  0.19117  0.55518  1.0000
  C   C352      1.0  0.63142  0.19220  0.57618  1.0000
  N   N60       1.0  0.62129  0.19726  0.51005  1.0000
  H   H231      1.0  0.62505  0.18928  0.63985  1.0000
  C   C353      1.0  0.66271  0.18595  0.62368  1.0000
  H   H232      1.0  0.67721  0.18602  0.59464  1.0000
  H   H233      1.0  0.65172  0.16951  0.65209  1.0000
  C   C354      1.0  0.59893  0.20904  0.37901  1.0000
  H   H234      1.0  0.59756  0.21304  0.44181  1.0000
  C   C355      1.0  0.07000  0.32808  0.35154  1.0000
  C   C356      1.0  0.05374  0.32015  0.42117  1.0000
  C   C357      1.0  0.03048  0.30877  0.40151  1.0000
  N   N61       1.0  0.01615  0.30162  0.47256  1.0000
  C   C358      1.0  0.02238  0.30466  0.56022  1.0000
  C   C359      1.0  0.04532  0.31602  0.57888  1.0000
  N   N62       1.0  0.05987  0.32319  0.50929  1.0000
  H   H235      1.0  0.05115  0.31888  0.64333  1.0000
  C   C360      1.0  0.00557  0.29627  0.63248  1.0000
  H   H236      1.0  0.98874  0.28792  0.60491  1.0000
  C   C361      1.0  0.09288  0.33868  0.37076  1.0000
  H   H237      1.0  0.09744  0.33694  0.43201  1.0000
  C   C362      1.0  0.74219  0.74384  0.35266  1.0000
  C   C363      1.0  0.75007  0.73551  0.42226  1.0000
  C   C364      1.0  0.76147  0.72363  0.40257  1.0000
  N   N63       1.0  0.76857  0.71644  0.47361  1.0000
  C   C365      1.0  0.76549  0.71965  0.56128  1.0000
  C   C366      1.0  0.75412  0.73124  0.57996  1.0000
  N   N64       1.0  0.74699  0.73861  0.51039  1.0000
  H   H238      1.0  0.75123  0.73421  0.64443  1.0000
  C   C367      1.0  0.77383  0.71123  0.63351  1.0000
  H   H239      1.0  0.78220  0.70275  0.60592  1.0000
  C   C368      1.0  0.73158  0.75613  0.37189  1.0000
  H   H240      1.0  0.73331  0.76245  0.43311  1.0000
  C   C369      1.0  0.32641  0.00025  0.35140  1.0000
  C   C370      1.0  0.33469  0.01644  0.42113  1.0000
  C   C371      1.0  0.34660  0.03972  0.40163  1.0000
  N   N65       1.0  0.35374  0.05398  0.47277  1.0000
  C   C372      1.0  0.35046  0.04765  0.56039  1.0000
  C   C373      1.0  0.33884  0.02469  0.57890  1.0000
  N   N66       1.0  0.33151  0.01022  0.50922  1.0000
  H   H241      1.0  0.33581  0.01880  0.64331  1.0000
  C   C374      1.0  0.35884  0.06439  0.63276  1.0000
  H   H242      1.0  0.36735  0.08124  0.60530  1.0000
  C   C375      1.0  0.31407  0.97735  0.37047  1.0000
  H   H243      1.0  0.30765  0.97274  0.43158  1.0000
  C   C376      1.0  0.02243  0.72004  0.35122  1.0000
  C   C377      1.0  0.03866  0.72796  0.42071  1.0000
  C   C378      1.0  0.06193  0.73934  0.40087  1.0000
  N   N67       1.0  0.07624  0.74647  0.47181  1.0000
  C   C379      1.0  0.06996  0.74343  0.55952  1.0000
  C   C380      1.0  0.04702  0.73207  0.57836  1.0000
  N   N68       1.0  0.03250  0.72491  0.50889  1.0000
  H   H244      1.0  0.04117  0.72921  0.64286  1.0000
  C   C381      1.0  0.08675  0.75180  0.63165  1.0000
  H   H245      1.0  0.10359  0.76016  0.60394  1.0000
  C   C382      1.0  0.99954  0.70945  0.37062  1.0000
  H   H246      1.0  0.99496  0.71122  0.43185  1.0000
  C   C383      1.0  0.35023  0.30429  0.35233  1.0000
  C   C384      1.0  0.34228  0.31261  0.42184  1.0000
  C   C385      1.0  0.33090  0.32450  0.40202  1.0000
  N   N69       1.0  0.32373  0.33168  0.47297  1.0000
  C   C386      1.0  0.32673  0.32846  0.56068  1.0000
  C   C387      1.0  0.33808  0.31687  0.57949  1.0000
  N   N70       1.0  0.34528  0.30950  0.51000  1.0000
  H   H247      1.0  0.34091  0.31389  0.64399  1.0000
  C   C388      1.0  0.31832  0.33688  0.63282  1.0000
  H   H248      1.0  0.30998  0.34536  0.60514  1.0000
  C   C389      1.0  0.36081  0.29200  0.37170  1.0000
  H   H249      1.0  0.35902  0.28567  0.43295  1.0000
  C   C390      1.0  0.76601  0.04786  0.35220  1.0000
  C   C391      1.0  0.75766  0.03161  0.42181  1.0000
  C   C392      1.0  0.74578  0.00835  0.40213  1.0000
  N   N71       1.0  0.73856  0.99403  0.47317  1.0000
  C   C393      1.0  0.74175  0.00028  0.56083  1.0000
  C   C394      1.0  0.75334  0.02322  0.57951  1.0000
  N   N72       1.0  0.76074  0.03776  0.50994  1.0000
  H   H250      1.0  0.75630  0.02906  0.64397  1.0000
  C   C395      1.0  0.73330  0.98348  0.63308  1.0000
  H   H251      1.0  0.72482  0.96665  0.60549  1.0000
  C   C396      1.0  0.77831  0.07074  0.37143  1.0000
  H   H252      1.0  0.78465  0.07531  0.43260  1.0000
