data_image0
_chemical_formula_structural       C8H3NO2C8H3NO2C2HC2HC2H4C2HC2HC2H4C8H3NO2C8H3NO2C2HC2HC2H4C2HC2HC2H4C8H3NO2C8H3NO2C8H3NO2C8H3NO2C2HC2HC2H4C2HC2HC2H4C8H3NO2C8H3NO2C2HC2HC2H4C2HC2HC2H4C8H3NO2C8H3NO2C2HC2HC2H4C2HC2HC2H4C8H3NO2C8H3NO2C6H3C6H3C6H3C6H3C6H3C6H3C6H3C6H3C6H3C6H3C6H3C6H3C6H3C6H3C6H3C6H3C2HC2HC2H4C2HC2HC2H4C8H3NO2C8H3NO2C2HC2HC2H4C2HC2HC2H4C8H3NO2C8H3NO2C2HC2HC2H4C2HC2HC2H4C2HC2HC2H4C2HC2HC2H4C8H3NO2C8H3NO2C2HC2HC2H4C2HC2HC2H4C8H3NO2C8H3NO2C2HC2HC2H4C2HC2HC2H4C8H3NO2C8H3NO2C2HC2HC2H4C2HC2HC2H4
_chemical_formula_sum              "C432 H264 N24 O48"
_cell_length_a       67.0182
_cell_length_b       52.5525
_cell_length_c       14.8831
_cell_angle_alpha    90
_cell_angle_beta     90
_cell_angle_gamma    90

_space_group_name_H-M_alt    "P 1"
_space_group_IT_number       1

loop_
  _space_group_symop_operation_xyz
  'x, y, z'

loop_
  _atom_site_type_symbol
  _atom_site_label
  _atom_site_symmetry_multiplicity
  _atom_site_fract_x
  _atom_site_fract_y
  _atom_site_fract_z
  _atom_site_occupancy
  C   C1        1.0  0.00405  0.93463  0.33385  1.0000
  C   C2        1.0  0.01102  0.94745  0.25680  1.0000
  C   C3        1.0  0.01111  0.97443  0.25046  1.0000
  C   C4        1.0  0.00503  0.98966  0.32519  1.0000
  C   C5        1.0  0.00488  0.01745  0.32585  1.0000
  C   C6        1.0  0.01863  0.03261  0.27703  1.0000
  C   C7        1.0  0.01827  0.05941  0.28035  1.0000
  C   C8        1.0  0.00440  0.07274  0.33440  1.0000
  H   H1        1.0  0.02976  0.02440  0.24041  1.0000
  H   H2        1.0  0.02836  0.06919  0.24196  1.0000
  H   H3        1.0  0.01545  0.93695  0.20232  1.0000
  N   N1        1.0  0.01588  0.98580  0.16687  1.0000
  O   O1        1.0  0.03318  0.98008  0.14103  1.0000
  O   O2        1.0  0.00364  0.97973  0.10652  1.0000
  C   C9        1.0  0.50407  0.43462  0.33384  1.0000
  C   C10       1.0  0.51116  0.44745  0.25704  1.0000
  C   C11       1.0  0.51125  0.47443  0.25067  1.0000
  C   C12       1.0  0.50505  0.48966  0.32520  1.0000
  C   C13       1.0  0.50489  0.51745  0.32585  1.0000
  C   C14       1.0  0.51870  0.53262  0.27735  1.0000
  C   C15       1.0  0.51835  0.55942  0.28073  1.0000
  C   C16       1.0  0.50440  0.57275  0.33438  1.0000
  H   H4        1.0  0.52990  0.52441  0.24115  1.0000
  H   H5        1.0  0.52849  0.56920  0.24263  1.0000
  H   H6        1.0  0.51565  0.43695  0.20265  1.0000
  N   N2        1.0  0.51613  0.48579  0.16721  1.0000
  O   O3        1.0  0.53347  0.48009  0.14191  1.0000
  O   O4        1.0  0.50399  0.47971  0.10650  1.0000
  C   C17       1.0  0.06942  0.17579  0.27823  1.0000
  C   C18       1.0  0.05175  0.16106  0.27228  1.0000
  H   H7        1.0  0.04707  0.15449  0.21099  1.0000
  C   C19       1.0  0.12486  0.21631  0.28957  1.0000
  C   C20       1.0  0.10789  0.20010  0.29219  1.0000
  H   H8        1.0  0.13468  0.21492  0.23705  1.0000
  C   C21       1.0  0.10404  0.18180  0.21777  1.0000
  C   C22       1.0  0.08142  0.18071  0.19557  1.0000
  H   H9        1.0  0.10913  0.16296  0.23884  1.0000
  H   H10       1.0  0.11221  0.18699  0.15684  1.0000
  H   H11       1.0  0.07902  0.16591  0.14502  1.0000
  H   H12       1.0  0.07669  0.19886  0.16669  1.0000
  C   C23       1.0  0.93836  0.83199  0.28177  1.0000
  C   C24       1.0  0.95605  0.84668  0.27602  1.0000
  H   H13       1.0  0.96102  0.85273  0.21450  1.0000
  C   C25       1.0  0.88300  0.79138  0.29144  1.0000
  C   C26       1.0  0.89989  0.80770  0.29440  1.0000
  H   H14       1.0  0.87340  0.79242  0.23801  1.0000
  C   C27       1.0  0.90404  0.82552  0.21888  1.0000
  C   C28       1.0  0.92674  0.82646  0.19852  1.0000
  H   H15       1.0  0.89887  0.84450  0.23803  1.0000
  H   H16       1.0  0.89612  0.81996  0.15770  1.0000
  H   H17       1.0  0.92935  0.84089  0.14686  1.0000
  H   H18       1.0  0.93160  0.80810  0.17172  1.0000
  C   C29       1.0  0.96703  0.15459  0.33550  1.0000
  C   C30       1.0  0.95938  0.16214  0.25151  1.0000
  C   C31       1.0  0.94173  0.17692  0.24393  1.0000
  C   C32       1.0  0.93146  0.18521  0.32282  1.0000
  C   C33       1.0  0.91374  0.20125  0.32210  1.0000
  C   C34       1.0  0.91052  0.22050  0.25697  1.0000
  C   C35       1.0  0.89392  0.23685  0.26068  1.0000
  C   C36       1.0  0.87974  0.23505  0.33060  1.0000
  H   H19       1.0  0.92087  0.22405  0.20828  1.0000
  H   H20       1.0  0.89254  0.25066  0.21250  1.0000
  H   H21       1.0  0.96670  0.15667  0.19423  1.0000
  N   N3        1.0  0.93385  0.18186  0.15731  1.0000
  O   O5        1.0  0.94595  0.19393  0.10871  1.0000
  O   O6        1.0  0.92897  0.16172  0.11740  1.0000
  C   C37       1.0  0.04030  0.85253  0.33056  1.0000
  C   C38       1.0  0.04838  0.84580  0.24652  1.0000
  C   C39       1.0  0.06608  0.83109  0.23908  1.0000
  C   C40       1.0  0.07601  0.82218  0.31803  1.0000
  C   C41       1.0  0.09384  0.80634  0.31739  1.0000
  C   C42       1.0  0.09746  0.78760  0.25083  1.0000
  C   C43       1.0  0.11409  0.77131  0.25482  1.0000
  C   C44       1.0  0.12793  0.77274  0.32622  1.0000
  H   H22       1.0  0.08732  0.78429  0.20102  1.0000
  H   H23       1.0  0.11574  0.75778  0.20583  1.0000
  H   H24       1.0  0.04135  0.85182  0.18920  1.0000
  N   N4        1.0  0.07436  0.82685  0.15277  1.0000
  O   O7        1.0  0.06251  0.81514  0.10191  1.0000
  O   O8        1.0  0.07939  0.84730  0.11528  1.0000
  C   C45       1.0  0.56941  0.67587  0.27889  1.0000
  C   C46       1.0  0.55171  0.66120  0.27285  1.0000
  H   H25       1.0  0.54698  0.65475  0.21148  1.0000
  C   C47       1.0  0.62491  0.71616  0.29001  1.0000
  C   C48       1.0  0.60795  0.69997  0.29280  1.0000
  H   H26       1.0  0.63464  0.71487  0.23710  1.0000
  C   C49       1.0  0.60398  0.68181  0.21807  1.0000
  C   C50       1.0  0.58135  0.68089  0.19617  1.0000
  H   H27       1.0  0.60901  0.66290  0.23873  1.0000
  H   H28       1.0  0.61213  0.68703  0.15713  1.0000
  H   H29       1.0  0.57886  0.66621  0.14526  1.0000
  H   H30       1.0  0.57666  0.69914  0.16783  1.0000
  C   C51       1.0  0.43843  0.33184  0.28235  1.0000
  C   C52       1.0  0.45614  0.34648  0.27652  1.0000
  H   H31       1.0  0.46118  0.35236  0.21493  1.0000
  C   C53       1.0  0.38298  0.29147  0.29177  1.0000
  C   C54       1.0  0.39988  0.30776  0.29483  1.0000
  H   H32       1.0  0.37349  0.29238  0.23790  1.0000
  C   C55       1.0  0.40416  0.32539  0.21890  1.0000
  C   C56       1.0  0.42688  0.32615  0.19901  1.0000
  H   H33       1.0  0.39905  0.34444  0.23742  1.0000
  H   H34       1.0  0.39628  0.31975  0.15770  1.0000
  H   H35       1.0  0.42961  0.34042  0.14690  1.0000
  H   H36       1.0  0.43171  0.30769  0.17295  1.0000
  C   C57       1.0  0.46703  0.65461  0.33496  1.0000
  C   C58       1.0  0.45930  0.66196  0.25089  1.0000
  C   C59       1.0  0.44162  0.67670  0.24323  1.0000
  C   C60       1.0  0.43140  0.68514  0.32207  1.0000
  C   C61       1.0  0.41363  0.70108  0.32123  1.0000
  C   C62       1.0  0.41028  0.72020  0.25569  1.0000
  C   C63       1.0  0.39366  0.73652  0.25948  1.0000
  C   C64       1.0  0.37956  0.73480  0.32978  1.0000
  H   H37       1.0  0.42057  0.72369  0.20670  1.0000
  H   H38       1.0  0.39221  0.75028  0.21119  1.0000
  H   H39       1.0  0.46657  0.65637  0.19364  1.0000
  N   N5        1.0  0.43367  0.68146  0.15662  1.0000
  O   O9        1.0  0.44572  0.69346  0.10755  1.0000
  O   O10       1.0  0.42879  0.66124  0.11727  1.0000
  C   C65       1.0  0.54030  0.35249  0.32994  1.0000
  C   C66       1.0  0.54849  0.34600  0.24587  1.0000
  C   C67       1.0  0.56621  0.33133  0.23836  1.0000
  C   C68       1.0  0.57608  0.32226  0.31724  1.0000
  C   C69       1.0  0.59396  0.30651  0.31652  1.0000
  C   C70       1.0  0.59772  0.28793  0.24955  1.0000
  C   C71       1.0  0.61438  0.27167  0.25364  1.0000
  C   C72       1.0  0.62813  0.27299  0.32544  1.0000
  H   H40       1.0  0.58766  0.28468  0.19941  1.0000
  H   H41       1.0  0.61609  0.25818  0.20452  1.0000
  H   H42       1.0  0.54151  0.35215  0.18859  1.0000
  N   N6        1.0  0.57458  0.32729  0.15210  1.0000
  O   O11       1.0  0.56280  0.31566  0.10072  1.0000
  O   O12       1.0  0.57962  0.34783  0.11526  1.0000
  C   C73       1.0  0.38781  0.05081  0.32597  1.0000
  C   C74       1.0  0.38776  0.06420  0.24404  1.0000
  C   C75       1.0  0.38131  0.08982  0.23878  1.0000
  C   C76       1.0  0.37555  0.10294  0.31864  1.0000
  C   C77       1.0  0.37012  0.12959  0.32125  1.0000
  C   C78       1.0  0.37912  0.14811  0.26506  1.0000
  C   C79       1.0  0.37413  0.17403  0.27116  1.0000
  C   C80       1.0  0.36010  0.18265  0.33496  1.0000
  H   H43       1.0  0.39015  0.14324  0.22102  1.0000
  H   H44       1.0  0.38079  0.18658  0.22794  1.0000
  H   H45       1.0  0.39267  0.05527  0.18696  1.0000
  N   N7        1.0  0.37978  0.10155  0.15331  1.0000
  O   O13       1.0  0.39624  0.10205  0.11274  1.0000
  O   O14       1.0  0.36720  0.09053  0.10423  1.0000
  C   C81       1.0  0.61969  0.95696  0.32636  1.0000
  C   C82       1.0  0.62012  0.94384  0.24395  1.0000
  C   C83       1.0  0.62667  0.91827  0.23830  1.0000
  C   C84       1.0  0.63217  0.90496  0.31814  1.0000
  C   C85       1.0  0.63769  0.87833  0.32019  1.0000
  C   C86       1.0  0.62892  0.85994  0.26280  1.0000
  C   C87       1.0  0.63397  0.83403  0.26833  1.0000
  C   C88       1.0  0.64780  0.82531  0.33280  1.0000
  H   H46       1.0  0.61804  0.86489  0.21815  1.0000
  H   H47       1.0  0.62747  0.82156  0.22431  1.0000
  H   H48       1.0  0.61542  0.95292  0.18680  1.0000
  N   N8        1.0  0.62859  0.90678  0.15257  1.0000
  O   O15       1.0  0.61229  0.90632  0.11065  1.0000
  O   O16       1.0  0.64132  0.91802  0.10491  1.0000
  C   C89       1.0  0.63280  0.08919  0.27968  1.0000
  C   C90       1.0  0.62631  0.06364  0.27571  1.0000
  H   H49       1.0  0.62589  0.05439  0.21512  1.0000
  C   C91       1.0  0.65543  0.16493  0.28643  1.0000
  C   C92       1.0  0.65017  0.13889  0.29077  1.0000
  H   H50       1.0  0.66477  0.17108  0.23643  1.0000
  C   C93       1.0  0.65719  0.12091  0.22019  1.0000
  C   C94       1.0  0.64041  0.10174  0.19660  1.0000
  H   H51       1.0  0.67018  0.11061  0.24575  1.0000
  H   H52       1.0  0.66168  0.13089  0.15892  1.0000
  H   H53       1.0  0.64635  0.08782  0.14895  1.0000
  H   H54       1.0  0.62806  0.11173  0.16398  1.0000
  C   C95       1.0  0.37461  0.91868  0.28287  1.0000
  C   C96       1.0  0.38107  0.94424  0.27862  1.0000
  H   H55       1.0  0.38135  0.95350  0.21801  1.0000
  C   C97       1.0  0.35204  0.84292  0.29044  1.0000
  C   C98       1.0  0.35729  0.86897  0.29463  1.0000
  H   H56       1.0  0.34261  0.83678  0.24074  1.0000
  C   C99       1.0  0.35010  0.88695  0.22443  1.0000
  C   C100      1.0  0.36682  0.90614  0.20012  1.0000
  H   H57       1.0  0.33716  0.89724  0.25061  1.0000
  H   H58       1.0  0.34548  0.87699  0.16334  1.0000
  H   H59       1.0  0.36076  0.92007  0.15278  1.0000
  H   H60       1.0  0.37910  0.89617  0.16691  1.0000
  C   C101      1.0  0.88774  0.55084  0.32778  1.0000
  C   C102      1.0  0.88733  0.56418  0.24579  1.0000
  C   C103      1.0  0.88074  0.58974  0.24091  1.0000
  C   C104      1.0  0.87518  0.60284  0.32113  1.0000
  C   C105      1.0  0.86967  0.62946  0.32406  1.0000
  C   C106      1.0  0.87842  0.64798  0.26713  1.0000
  C   C107      1.0  0.87341  0.67388  0.27356  1.0000
  C   C108      1.0  0.85964  0.68250  0.33854  1.0000
  H   H61       1.0  0.88930  0.64315  0.22231  1.0000
  H   H62       1.0  0.87990  0.68643  0.22978  1.0000
  H   H63       1.0  0.89207  0.55526  0.18839  1.0000
  N   N9        1.0  0.87885  0.60143  0.15551  1.0000
  O   O17       1.0  0.89516  0.60205  0.11375  1.0000
  O   O18       1.0  0.86615  0.59029  0.10738  1.0000
  C   C109      1.0  0.11974  0.45693  0.32869  1.0000
  C   C110      1.0  0.12056  0.44388  0.24622  1.0000
  C   C111      1.0  0.12726  0.41838  0.24091  1.0000
  C   C112      1.0  0.13251  0.40506  0.32108  1.0000
  C   C113      1.0  0.13812  0.37847  0.32340  1.0000
  C   C114      1.0  0.12962  0.36008  0.26517  1.0000
  C   C115      1.0  0.13470  0.33420  0.27096  1.0000
  C   C116      1.0  0.14825  0.32545  0.33663  1.0000
  H   H64       1.0  0.11890  0.36501  0.21968  1.0000
  H   H65       1.0  0.12838  0.32174  0.22632  1.0000
  H   H66       1.0  0.11606  0.45297  0.18876  1.0000
  N   N10       1.0  0.12956  0.40696  0.15525  1.0000
  O   O19       1.0  0.11343  0.40639  0.11205  1.0000
  O   O20       1.0  0.14242  0.41831  0.10867  1.0000
  C   C117      1.0  0.13277  0.58913  0.27664  1.0000
  C   C118      1.0  0.12611  0.56364  0.27301  1.0000
  H   H67       1.0  0.12541  0.55442  0.21242  1.0000
  C   C119      1.0  0.15559  0.66478  0.28182  1.0000
  C   C120      1.0  0.15034  0.63874  0.28654  1.0000
  H   H68       1.0  0.16468  0.67094  0.23092  1.0000
  C   C121      1.0  0.15702  0.62076  0.21529  1.0000
  C   C122      1.0  0.14009  0.60166  0.19301  1.0000
  H   H69       1.0  0.17008  0.61040  0.23973  1.0000
  H   H70       1.0  0.16128  0.63074  0.15372  1.0000
  H   H71       1.0  0.14582  0.58772  0.14490  1.0000
  H   H72       1.0  0.12765  0.61171  0.16136  1.0000
  C   C123      1.0  0.87467  0.41877  0.28007  1.0000
  C   C124      1.0  0.88129  0.44427  0.27622  1.0000
  H   H73       1.0  0.88183  0.45351  0.21563  1.0000
  C   C125      1.0  0.85190  0.34308  0.28595  1.0000
  C   C126      1.0  0.85716  0.36913  0.29058  1.0000
  H   H74       1.0  0.84271  0.33695  0.23538  1.0000
  C   C127      1.0  0.85029  0.38713  0.21978  1.0000
  C   C128      1.0  0.86715  0.40626  0.19676  1.0000
  H   H75       1.0  0.83728  0.39747  0.24493  1.0000
  H   H76       1.0  0.84588  0.37718  0.15836  1.0000
  H   H77       1.0  0.86129  0.42022  0.14901  1.0000
  H   H78       1.0  0.87952  0.39624  0.16442  1.0000
  C   C129      1.0  0.55725  0.00415  0.33111  1.0000
  C   C130      1.0  0.54754  0.00439  0.24740  1.0000
  C   C131      1.0  0.52647  0.00389  0.24148  1.0000
  C   C132      1.0  0.51483  0.00380  0.32179  1.0000
  C   C133      1.0  0.49332  0.00337  0.32237  1.0000
  C   C134      1.0  0.48175  0.01674  0.25829  1.0000
  C   C135      1.0  0.46083  0.01675  0.26206  1.0000
  C   C136      1.0  0.45069  0.00377  0.33135  1.0000
  H   H79       1.0  0.48834  0.02764  0.20987  1.0000
  H   H80       1.0  0.45306  0.02639  0.21354  1.0000
  H   H81       1.0  0.55586  0.00436  0.18960  1.0000
  N   N11       1.0  0.51742  0.00151  0.15581  1.0000
  O   O21       1.0  0.52180  0.01976  0.10486  1.0000
  O   O22       1.0  0.52217  0.98105  0.11761  1.0000
  C   C137      1.0  0.05727  0.50416  0.33125  1.0000
  C   C138      1.0  0.04756  0.50485  0.24758  1.0000
  C   C139      1.0  0.02649  0.50437  0.24165  1.0000
  C   C140      1.0  0.01484  0.50389  0.32192  1.0000
  C   C141      1.0  0.99333  0.50349  0.32250  1.0000
  C   C142      1.0  0.98175  0.51716  0.25919  1.0000
  C   C143      1.0  0.96083  0.51713  0.26287  1.0000
  C   C144      1.0  0.95068  0.50385  0.33142  1.0000
  H   H82       1.0  0.98835  0.52823  0.21129  1.0000
  H   H83       1.0  0.95307  0.52696  0.21483  1.0000
  H   H84       1.0  0.05587  0.50513  0.18979  1.0000
  N   N12       1.0  0.01743  0.50240  0.15584  1.0000
  O   O23       1.0  0.02182  0.52089  0.10597  1.0000
  O   O24       1.0  0.02218  0.48213  0.11645  1.0000
  C   C145      1.0  0.23185  0.25179  0.27376  1.0000
  C   C146      1.0  0.21079  0.25399  0.27225  1.0000
  H   H85       1.0  0.20327  0.25202  0.21272  1.0000
  C   C147      1.0  0.29450  0.23618  0.27665  1.0000
  C   C148      1.0  0.27354  0.23941  0.28056  1.0000
  H   H86       1.0  0.30044  0.22497  0.22708  1.0000
  C   C149      1.0  0.26064  0.22753  0.21073  1.0000
  C   C150      1.0  0.24261  0.24498  0.18948  1.0000
  H   H87       1.0  0.25531  0.20919  0.23580  1.0000
  H   H88       1.0  0.26888  0.22411  0.14845  1.0000
  H   H89       1.0  0.23286  0.23515  0.14183  1.0000
  H   H90       1.0  0.24787  0.26248  0.15751  1.0000
  C   C151      1.0  0.77596  0.75590  0.27398  1.0000
  C   C152      1.0  0.79702  0.75375  0.27297  1.0000
  H   H91       1.0  0.80461  0.75568  0.21358  1.0000
  C   C153      1.0  0.71332  0.77155  0.27548  1.0000
  C   C154      1.0  0.73427  0.76829  0.27981  1.0000
  H   H92       1.0  0.70744  0.78277  0.22577  1.0000
  C   C155      1.0  0.74725  0.78013  0.21020  1.0000
  C   C156      1.0  0.76529  0.76266  0.18943  1.0000
  H   H93       1.0  0.75256  0.79848  0.23527  1.0000
  H   H94       1.0  0.73907  0.78353  0.14772  1.0000
  H   H95       1.0  0.77509  0.77246  0.14190  1.0000
  H   H96       1.0  0.76006  0.74515  0.15748  1.0000
  C   C157      1.0  0.80773  0.25969  0.33379  1.0000
  C   C158      1.0  0.79704  0.26287  0.25305  1.0000
  C   C159      1.0  0.77594  0.26059  0.24936  1.0000
  C   C160      1.0  0.76478  0.25613  0.32965  1.0000
  C   C161      1.0  0.74311  0.25393  0.33323  1.0000
  C   C162      1.0  0.72991  0.26722  0.27516  1.0000
  C   C163      1.0  0.70902  0.26415  0.27990  1.0000
  C   C164      1.0  0.70023  0.24786  0.34413  1.0000
  H   H97       1.0  0.73525  0.27987  0.22910  1.0000
  H   H98       1.0  0.70029  0.27331  0.23367  1.0000
  H   H99       1.0  0.80474  0.26684  0.19525  1.0000
  N   N13       1.0  0.76640  0.26138  0.16446  1.0000
  O   O25       1.0  0.76938  0.28213  0.12451  1.0000
  O   O26       1.0  0.77197  0.24349  0.11434  1.0000
  C   C165      1.0  0.19991  0.74810  0.33168  1.0000
  C   C166      1.0  0.21075  0.74497  0.25133  1.0000
  C   C167      1.0  0.23186  0.74724  0.24844  1.0000
  C   C168      1.0  0.24287  0.75161  0.32920  1.0000
  C   C169      1.0  0.26453  0.75381  0.33362  1.0000
  C   C170      1.0  0.27785  0.74056  0.27594  1.0000
  C   C171      1.0  0.29872  0.74364  0.28145  1.0000
  C   C172      1.0  0.30739  0.75989  0.34618  1.0000
  H   H100      1.0  0.27259  0.72796  0.22953  1.0000
  H   H101      1.0  0.30754  0.73451  0.23548  1.0000
  H   H102      1.0  0.20316  0.74104  0.19320  1.0000
  N   N14       1.0  0.24156  0.74650  0.16391  1.0000
  O   O27       1.0  0.23863  0.72578  0.12365  1.0000
  O   O28       1.0  0.23608  0.76444  0.11375  1.0000
  C   C173      1.0  0.98536  0.14090  0.34067  1.0000
  C   C174      1.0  0.00361  0.15436  0.34369  1.0000
  C   C175      1.0  0.02210  0.14145  0.34346  1.0000
  C   C176      1.0  0.02211  0.11453  0.34053  1.0000
  C   C177      1.0  0.00412  0.10020  0.33785  1.0000
  C   C178      1.0  0.98586  0.11397  0.33784  1.0000
  H   H103      1.0  0.03553  0.10523  0.34262  1.0000
  H   H104      1.0  0.97264  0.10428  0.33334  1.0000
  H   H105      1.0  0.00343  0.17386  0.34532  1.0000
  C   C179      1.0  0.02211  0.86649  0.33608  1.0000
  C   C180      1.0  0.00373  0.85344  0.34338  1.0000
  C   C181      1.0  0.98541  0.86677  0.34731  1.0000
  C   C182      1.0  0.98572  0.89371  0.34564  1.0000
  C   C183      1.0  0.00388  0.90739  0.33770  1.0000
  C   C184      1.0  0.02194  0.89341  0.33196  1.0000
  H   H106      1.0  0.97250  0.90348  0.34844  1.0000
  H   H107      1.0  0.03520  0.90297  0.32631  1.0000
  H   H108      1.0  0.00367  0.83394  0.34503  1.0000
  C   C185      1.0  0.48537  0.64093  0.34027  1.0000
  C   C186      1.0  0.50361  0.65438  0.34376  1.0000
  C   C187      1.0  0.52211  0.64147  0.34391  1.0000
  C   C188      1.0  0.52211  0.61455  0.34091  1.0000
  C   C189      1.0  0.50413  0.60022  0.33783  1.0000
  C   C190      1.0  0.48587  0.61399  0.33740  1.0000
  H   H109      1.0  0.53553  0.60525  0.34331  1.0000
  H   H110      1.0  0.47265  0.60431  0.33264  1.0000
  H   H111      1.0  0.50344  0.67389  0.34540  1.0000
  C   C191      1.0  0.52211  0.36646  0.33559  1.0000
  C   C192      1.0  0.50373  0.35341  0.34336  1.0000
  C   C193      1.0  0.48542  0.36674  0.34772  1.0000
  C   C194      1.0  0.48574  0.39369  0.34604  1.0000
  C   C195      1.0  0.50389  0.40737  0.33767  1.0000
  C   C196      1.0  0.52193  0.39337  0.33150  1.0000
  H   H112      1.0  0.47252  0.40346  0.34912  1.0000
  H   H113      1.0  0.53520  0.40292  0.32558  1.0000
  H   H114      1.0  0.50367  0.33391  0.34498  1.0000
  C   C197      1.0  0.42952  0.00383  0.33545  1.0000
  C   C198      1.0  0.41885  0.98086  0.34596  1.0000
  C   C199      1.0  0.39780  0.98061  0.34877  1.0000
  C   C200      1.0  0.38722  0.00383  0.34218  1.0000
  C   C201      1.0  0.39765  0.02705  0.33220  1.0000
  C   C202      1.0  0.41870  0.02679  0.32850  1.0000
  H   H115      1.0  0.37195  0.00380  0.34411  1.0000
  H   H116      1.0  0.42630  0.04365  0.32258  1.0000
  H   H117      1.0  0.42652  0.96399  0.34911  1.0000
  C   C203      1.0  0.57822  0.00406  0.33534  1.0000
  C   C204      1.0  0.58875  0.02710  0.34416  1.0000
  C   C205      1.0  0.60981  0.02727  0.34678  1.0000
  C   C206      1.0  0.62033  0.00398  0.34119  1.0000
  C   C207      1.0  0.60986  0.98072  0.33256  1.0000
  C   C208      1.0  0.58880  0.98098  0.32931  1.0000
  H   H118      1.0  0.63562  0.00397  0.34285  1.0000
  H   H119      1.0  0.58108  0.96422  0.32297  1.0000
  H   H120      1.0  0.58099  0.04391  0.34755  1.0000
  C   C209      1.0  0.92950  0.50388  0.33547  1.0000
  C   C210      1.0  0.91884  0.48087  0.34490  1.0000
  C   C211      1.0  0.89778  0.48061  0.34767  1.0000
  C   C212      1.0  0.88720  0.50384  0.34217  1.0000
  C   C213      1.0  0.89762  0.52709  0.33326  1.0000
  C   C214      1.0  0.91867  0.52686  0.32953  1.0000
  H   H121      1.0  0.87192  0.50380  0.34410  1.0000
  H   H122      1.0  0.92625  0.54375  0.32429  1.0000
  H   H123      1.0  0.92650  0.46399  0.34741  1.0000
  C   C215      1.0  0.07825  0.50406  0.33546  1.0000
  C   C216      1.0  0.08880  0.52714  0.34270  1.0000
  C   C217      1.0  0.10985  0.52728  0.34539  1.0000
  C   C218      1.0  0.12037  0.50397  0.34129  1.0000
  C   C219      1.0  0.10988  0.48069  0.33412  1.0000
  C   C220      1.0  0.08883  0.48094  0.33096  1.0000
  H   H124      1.0  0.13565  0.50395  0.34295  1.0000
  H   H125      1.0  0.08109  0.46415  0.32552  1.0000
  H   H126      1.0  0.08106  0.54397  0.34517  1.0000
  C   C221      1.0  0.15352  0.29918  0.34168  1.0000
  C   C222      1.0  0.13870  0.28003  0.34346  1.0000
  C   C223      1.0  0.14358  0.25383  0.34754  1.0000
  C   C224      1.0  0.16407  0.24693  0.34738  1.0000
  C   C225      1.0  0.17927  0.26571  0.34688  1.0000
  C   C226      1.0  0.17374  0.29165  0.34460  1.0000
  H   H127      1.0  0.16796  0.22812  0.35123  1.0000
  H   H128      1.0  0.18466  0.30532  0.34289  1.0000
  H   H129      1.0  0.12398  0.28534  0.34287  1.0000
  C   C227      1.0  0.85433  0.70876  0.34386  1.0000
  C   C228      1.0  0.86909  0.72797  0.34641  1.0000
  C   C229      1.0  0.86412  0.75415  0.35032  1.0000
  C   C230      1.0  0.84363  0.76097  0.34945  1.0000
  C   C231      1.0  0.82848  0.74213  0.34844  1.0000
  C   C232      1.0  0.83408  0.71621  0.34609  1.0000
  H   H130      1.0  0.83969  0.77976  0.35331  1.0000
  H   H131      1.0  0.82320  0.70252  0.34381  1.0000
  H   H132      1.0  0.88383  0.72274  0.34639  1.0000
  C   C233      1.0  0.85435  0.29893  0.34282  1.0000
  C   C234      1.0  0.86909  0.27969  0.34123  1.0000
  C   C235      1.0  0.86409  0.25352  0.33762  1.0000
  C   C236      1.0  0.84358  0.24674  0.33783  1.0000
  C   C237      1.0  0.82846  0.26561  0.33784  1.0000
  C   C238      1.0  0.83409  0.29152  0.33992  1.0000
  H   H133      1.0  0.83963  0.22795  0.33408  1.0000
  H   H134      1.0  0.82322  0.30524  0.34145  1.0000
  H   H135      1.0  0.88383  0.28488  0.34151  1.0000
  C   C239      1.0  0.15327  0.70888  0.33910  1.0000
  C   C240      1.0  0.13853  0.72812  0.33699  1.0000
  C   C241      1.0  0.14356  0.75427  0.33354  1.0000
  C   C242      1.0  0.16406  0.76105  0.33435  1.0000
  C   C243      1.0  0.17918  0.74217  0.33494  1.0000
  C   C244      1.0  0.17353  0.71627  0.33686  1.0000
  H   H136      1.0  0.16801  0.77985  0.33088  1.0000
  H   H137      1.0  0.18440  0.70253  0.33872  1.0000
  H   H138      1.0  0.12378  0.72293  0.33685  1.0000
  C   C245      1.0  0.65319  0.79908  0.33730  1.0000
  C   C246      1.0  0.63853  0.77985  0.34230  1.0000
  C   C247      1.0  0.64362  0.75374  0.34722  1.0000
  C   C248      1.0  0.66415  0.74707  0.34481  1.0000
  C   C249      1.0  0.67936  0.76585  0.33885  1.0000
  C   C250      1.0  0.67345  0.79172  0.33629  1.0000
  H   H139      1.0  0.66807  0.72826  0.34791  1.0000
  H   H140      1.0  0.68415  0.80563  0.33331  1.0000
  H   H141      1.0  0.62378  0.78504  0.34351  1.0000
  C   C251      1.0  0.35466  0.20886  0.33967  1.0000
  C   C252      1.0  0.36928  0.22816  0.34535  1.0000
  C   C253      1.0  0.36409  0.25424  0.35008  1.0000
  C   C254      1.0  0.34355  0.26083  0.34711  1.0000
  C   C255      1.0  0.32840  0.24200  0.34065  1.0000
  C   C256      1.0  0.33438  0.21616  0.33801  1.0000
  H   H142      1.0  0.33958  0.27963  0.35008  1.0000
  H   H143      1.0  0.32372  0.20221  0.33454  1.0000
  H   H144      1.0  0.38403  0.22305  0.34706  1.0000
  C   C257      1.0  0.35464  0.79882  0.34718  1.0000
  C   C258      1.0  0.36925  0.77949  0.34227  1.0000
  C   C259      1.0  0.36403  0.75342  0.33775  1.0000
  C   C260      1.0  0.34349  0.74686  0.34004  1.0000
  C   C261      1.0  0.32834  0.76572  0.34572  1.0000
  C   C262      1.0  0.33435  0.79156  0.34823  1.0000
  H   H145      1.0  0.33951  0.72807  0.33712  1.0000
  H   H146      1.0  0.32370  0.80553  0.35107  1.0000
  H   H147      1.0  0.38401  0.78457  0.34085  1.0000
  C   C263      1.0  0.65295  0.20899  0.34349  1.0000
  C   C264      1.0  0.63836  0.22832  0.33806  1.0000
  C   C265      1.0  0.64361  0.25437  0.33369  1.0000
  C   C266      1.0  0.66416  0.26092  0.33667  1.0000
  C   C267      1.0  0.67928  0.24203  0.34284  1.0000
  C   C268      1.0  0.67325  0.21621  0.34516  1.0000
  H   H148      1.0  0.66815  0.27971  0.33398  1.0000
  H   H149      1.0  0.68388  0.20222  0.34835  1.0000
  H   H150      1.0  0.62359  0.22326  0.33620  1.0000
  C   C269      1.0  0.99717  0.97659  0.40166  1.0000
  C   C270      1.0  0.99676  0.94963  0.40523  1.0000
  H   H151      1.0  0.99138  0.94075  0.46152  1.0000
  C   C271      1.0  0.99126  0.05774  0.38691  1.0000
  C   C272      1.0  0.99161  0.03074  0.38440  1.0000
  H   H152      1.0  0.98157  0.06663  0.42984  1.0000
  C   C273      1.0  0.97835  0.01583  0.44501  1.0000
  C   C274      1.0  0.98912  0.99153  0.47873  1.0000
  H   H153      1.0  0.96494  0.01045  0.40771  1.0000
  H   H154      1.0  0.97370  0.02703  0.50333  1.0000
  H   H155      1.0  0.97860  0.98036  0.51877  1.0000
  H   H156      1.0  0.00154  0.99693  0.52238  1.0000
  C   C275      1.0  0.49707  0.47659  0.40141  1.0000
  C   C276      1.0  0.49665  0.44963  0.40495  1.0000
  H   H157      1.0  0.49120  0.44075  0.46111  1.0000
  C   C277      1.0  0.49119  0.55775  0.38650  1.0000
  C   C278      1.0  0.49155  0.53074  0.38401  1.0000
  H   H158      1.0  0.48144  0.56664  0.42915  1.0000
  C   C279      1.0  0.47819  0.51584  0.44423  1.0000
  C   C280      1.0  0.48891  0.49153  0.47825  1.0000
  H   H159      1.0  0.46484  0.51046  0.40655  1.0000
  H   H160      1.0  0.47347  0.52703  0.50242  1.0000
  H   H161      1.0  0.47833  0.48037  0.51796  1.0000
  H   H162      1.0  0.50128  0.49692  0.52227  1.0000
  C   C281      1.0  0.04026  0.15551  0.34912  1.0000
  C   C282      1.0  0.04724  0.16420  0.43289  1.0000
  C   C283      1.0  0.06495  0.17885  0.44083  1.0000
  C   C284      1.0  0.07587  0.18603  0.36233  1.0000
  C   C285      1.0  0.09365  0.20195  0.36323  1.0000
  C   C286      1.0  0.09652  0.22186  0.42620  1.0000
  C   C287      1.0  0.11321  0.23804  0.42262  1.0000
  C   C288      1.0  0.12784  0.23548  0.35481  1.0000
  H   H163      1.0  0.08585  0.22604  0.47279  1.0000
  H   H164      1.0  0.11432  0.25232  0.46920  1.0000
  H   H165      1.0  0.03950  0.15945  0.48984  1.0000
  N   N15       1.0  0.07225  0.18467  0.52780  1.0000
  O   O29       1.0  0.05991  0.19739  0.57298  1.0000
  O   O30       1.0  0.07672  0.16494  0.57110  1.0000
  C   C289      1.0  0.96713  0.85300  0.35336  1.0000
  C   C290      1.0  0.95978  0.84495  0.43730  1.0000
  C   C291      1.0  0.94211  0.83021  0.44498  1.0000
  C   C292      1.0  0.93156  0.82237  0.36621  1.0000
  C   C293      1.0  0.91382  0.80637  0.36685  1.0000
  C   C294      1.0  0.91074  0.78680  0.43098  1.0000
  C   C295      1.0  0.89412  0.77049  0.42706  1.0000
  C   C296      1.0  0.87979  0.77258  0.35782  1.0000
  H   H166      1.0  0.92120  0.78302  0.47896  1.0000
  H   H167      1.0  0.89285  0.75646  0.47449  1.0000
  H   H168      1.0  0.96729  0.85012  0.49443  1.0000
  N   N16       1.0  0.93447  0.82486  0.53173  1.0000
  O   O31       1.0  0.94667  0.81252  0.57890  1.0000
  O   O32       1.0  0.92974  0.84482  0.57312  1.0000
  C   C297      1.0  0.93850  0.17602  0.40746  1.0000
  C   C298      1.0  0.95623  0.16138  0.41313  1.0000
  H   H169      1.0  0.96140  0.15567  0.47470  1.0000
  C   C299      1.0  0.88308  0.21658  0.39797  1.0000
  C   C300      1.0  0.89999  0.20028  0.39531  1.0000
  H   H170      1.0  0.87362  0.21583  0.45195  1.0000
  C   C301      1.0  0.90433  0.18285  0.47176  1.0000
  C   C302      1.0  0.92709  0.18197  0.49095  1.0000
  H   H171      1.0  0.89910  0.16379  0.45413  1.0000
  H   H172      1.0  0.89658  0.18875  0.53298  1.0000
  H   H173      1.0  0.92983  0.16779  0.54331  1.0000
  H   H174      1.0  0.93204  0.20045  0.51639  1.0000
  C   C303      1.0  0.06852  0.83057  0.40292  1.0000
  C   C304      1.0  0.05072  0.84505  0.40844  1.0000
  H   H175      1.0  0.04529  0.85027  0.47008  1.0000
  C   C305      1.0  0.12420  0.79071  0.39482  1.0000
  C   C306      1.0  0.10725  0.80691  0.39193  1.0000
  H   H176      1.0  0.13340  0.79112  0.44977  1.0000
  C   C307      1.0  0.10244  0.82372  0.46954  1.0000
  C   C308      1.0  0.07961  0.82410  0.48682  1.0000
  H   H177      1.0  0.10757  0.84298  0.45406  1.0000
  H   H178      1.0  0.11000  0.81750  0.53087  1.0000
  H   H179      1.0  0.07651  0.83780  0.54036  1.0000
  H   H180      1.0  0.07473  0.80535  0.50991  1.0000
  C   C309      1.0  0.54026  0.65552  0.34972  1.0000
  C   C310      1.0  0.54731  0.66405  0.43358  1.0000
  C   C311      1.0  0.56505  0.67865  0.44162  1.0000
  C   C312      1.0  0.57594  0.68593  0.36315  1.0000
  C   C313      1.0  0.59377  0.70176  0.36414  1.0000
  C   C314      1.0  0.59676  0.72155  0.42748  1.0000
  C   C315      1.0  0.61347  0.73772  0.42376  1.0000
  C   C316      1.0  0.62799  0.73525  0.35550  1.0000
  H   H181      1.0  0.58614  0.72570  0.47434  1.0000
  H   H182      1.0  0.61463  0.75198  0.47039  1.0000
  H   H183      1.0  0.53961  0.65921  0.49054  1.0000
  N   N17       1.0  0.57241  0.68432  0.52860  1.0000
  O   O33       1.0  0.56011  0.69700  0.57414  1.0000
  O   O34       1.0  0.57686  0.66452  0.57149  1.0000
  C   C317      1.0  0.46713  0.35298  0.35390  1.0000
  C   C318      1.0  0.45969  0.34515  0.43793  1.0000
  C   C319      1.0  0.44199  0.33045  0.44568  1.0000
  C   C320      1.0  0.43151  0.32246  0.36693  1.0000
  C   C321      1.0  0.41371  0.30654  0.36768  1.0000
  C   C322      1.0  0.41050  0.28713  0.43225  1.0000
  C   C323      1.0  0.39386  0.27083  0.42822  1.0000
  C   C324      1.0  0.37963  0.27283  0.35855  1.0000
  H   H184      1.0  0.42089  0.28340  0.48057  1.0000
  H   H185      1.0  0.39253  0.25685  0.47580  1.0000
  H   H186      1.0  0.46714  0.35045  0.49506  1.0000
  N   N18       1.0  0.43427  0.32530  0.53241  1.0000
  O   O35       1.0  0.44641  0.31303  0.58011  1.0000
  O   O36       1.0  0.42953  0.34535  0.57321  1.0000
  C   C325      1.0  0.43855  0.67617  0.40683  1.0000
  C   C326      1.0  0.45630  0.66158  0.41259  1.0000
  H   H187      1.0  0.46153  0.65602  0.47422  1.0000
  C   C327      1.0  0.38304  0.71648  0.39752  1.0000
  C   C328      1.0  0.39996  0.70021  0.39478  1.0000
  H   H188      1.0  0.37368  0.71585  0.45189  1.0000
  C   C329      1.0  0.40444  0.68297  0.47160  1.0000
  C   C330      1.0  0.42722  0.68228  0.49037  1.0000
  H   H189      1.0  0.39926  0.66383  0.45457  1.0000
  H   H190      1.0  0.39672  0.68894  0.53282  1.0000
  H   H191      1.0  0.43006  0.66825  0.54315  1.0000
  H   H192      1.0  0.43212  0.70085  0.51511  1.0000
  C   C331      1.0  0.56847  0.33040  0.40222  1.0000
  C   C332      1.0  0.55064  0.34481  0.40780  1.0000
  H   H193      1.0  0.54514  0.34987  0.46949  1.0000
  C   C333      1.0  0.62424  0.29080  0.39440  1.0000
  C   C334      1.0  0.60727  0.30697  0.39142  1.0000
  H   H194      1.0  0.63332  0.29109  0.44976  1.0000
  C   C335      1.0  0.60232  0.32357  0.46941  1.0000
  C   C336      1.0  0.57947  0.32376  0.48617  1.0000
  H   H195      1.0  0.60738  0.34290  0.45460  1.0000
  H   H196      1.0  0.60983  0.31726  0.53074  1.0000
  H   H197      1.0  0.57626  0.33729  0.54013  1.0000
  H   H198      1.0  0.57464  0.30491  0.50848  1.0000
  C   C337      1.0  0.37417  0.08868  0.40014  1.0000
  C   C338      1.0  0.38062  0.06309  0.40351  1.0000
  H   H199      1.0  0.38078  0.05362  0.46369  1.0000
  C   C339      1.0  0.35187  0.16462  0.39490  1.0000
  C   C340      1.0  0.35706  0.13856  0.38992  1.0000
  H   H200      1.0  0.34233  0.17063  0.44434  1.0000
  C   C341      1.0  0.34967  0.12037  0.45901  1.0000
  C   C342      1.0  0.36624  0.10094  0.48311  1.0000
  H   H201      1.0  0.33673  0.11029  0.43185  1.0000
  H   H202      1.0  0.34498  0.13014  0.52037  1.0000
  H   H203      1.0  0.35999  0.08686  0.52939  1.0000
  H   H204      1.0  0.37848  0.11067  0.51747  1.0000
  C   C343      1.0  0.63319  0.91899  0.40025  1.0000
  C   C344      1.0  0.62661  0.94451  0.40403  1.0000
  H   H205      1.0  0.62622  0.95383  0.46451  1.0000
  C   C345      1.0  0.65579  0.84320  0.39390  1.0000
  C   C346      1.0  0.65054  0.86925  0.38945  1.0000
  H   H206      1.0  0.66517  0.83708  0.44379  1.0000
  C   C347      1.0  0.65763  0.88729  0.45968  1.0000
  C   C348      1.0  0.64090  0.90654  0.48333  1.0000
  H   H207      1.0  0.67062  0.89752  0.43377  1.0000
  H   H208      1.0  0.66215  0.87736  0.52100  1.0000
  H   H209      1.0  0.64693  0.92053  0.53049  1.0000
  H   H210      1.0  0.62859  0.89663  0.51652  1.0000
  C   C349      1.0  0.61959  0.05103  0.35341  1.0000
  C   C350      1.0  0.62001  0.06408  0.43596  1.0000
  C   C351      1.0  0.62647  0.08969  0.44178  1.0000
  C   C352      1.0  0.63187  0.10312  0.36202  1.0000
  C   C353      1.0  0.63738  0.12975  0.36020  1.0000
  C   C354      1.0  0.62866  0.14812  0.41788  1.0000
  C   C355      1.0  0.63370  0.17404  0.41239  1.0000
  C   C356      1.0  0.64748  0.18279  0.34774  1.0000
  H   H211      1.0  0.61784  0.14313  0.46277  1.0000
  H   H212      1.0  0.62724  0.18650  0.45658  1.0000
  H   H213      1.0  0.61538  0.05491  0.49305  1.0000
  N   N19       1.0  0.62841  0.10111  0.52760  1.0000
  O   O37       1.0  0.61214  0.10146  0.56973  1.0000
  O   O38       1.0  0.64121  0.08990  0.57496  1.0000
  C   C357      1.0  0.38804  0.95682  0.35594  1.0000
  C   C358      1.0  0.38785  0.94376  0.43847  1.0000
  C   C359      1.0  0.38137  0.91816  0.44460  1.0000
  C   C360      1.0  0.37575  0.90473  0.36512  1.0000
  C   C361      1.0  0.37022  0.87810  0.36352  1.0000
  C   C362      1.0  0.37903  0.85972  0.42089  1.0000
  C   C363      1.0  0.37400  0.83380  0.41550  1.0000
  C   C364      1.0  0.36009  0.82504  0.35137  1.0000
  H   H214      1.0  0.38997  0.86469  0.46524  1.0000
  H   H215      1.0  0.38054  0.82134  0.45945  1.0000
  H   H216      1.0  0.39264  0.95291  0.49532  1.0000
  N   N20       1.0  0.37965  0.90673  0.53050  1.0000
  O   O39       1.0  0.39602  0.90635  0.57180  1.0000
  O   O40       1.0  0.36697  0.91795  0.57854  1.0000
  C   C365      1.0  0.87417  0.58860  0.40278  1.0000
  C   C366      1.0  0.88077  0.56307  0.40579  1.0000
  H   H217      1.0  0.88117  0.55361  0.46597  1.0000
  C   C367      1.0  0.85167  0.66446  0.39912  1.0000
  C   C368      1.0  0.85686  0.63840  0.39371  1.0000
  H   H218      1.0  0.84235  0.67046  0.44939  1.0000
  C   C369      1.0  0.84976  0.62018  0.46334  1.0000
  C   C370      1.0  0.86646  0.60082  0.48628  1.0000
  H   H219      1.0  0.83676  0.61005  0.43711  1.0000
  H   H220      1.0  0.84527  0.62994  0.52502  1.0000
  H   H221      1.0  0.86041  0.58670  0.53291  1.0000
  H   H222      1.0  0.87879  0.61060  0.51986  1.0000
  C   C371      1.0  0.13313  0.41903  0.40338  1.0000
  C   C372      1.0  0.12640  0.44450  0.40684  1.0000
  H   H223      1.0  0.12575  0.45379  0.46731  1.0000
  C   C373      1.0  0.15595  0.34334  0.39848  1.0000
  C   C374      1.0  0.15070  0.36938  0.39367  1.0000
  H   H224      1.0  0.16510  0.33722  0.44923  1.0000
  C   C375      1.0  0.15746  0.38743  0.46453  1.0000
  C   C376      1.0  0.14059  0.40660  0.48696  1.0000
  H   H225      1.0  0.17051  0.39774  0.43968  1.0000
  H   H226      1.0  0.16177  0.37750  0.52614  1.0000
  H   H227      1.0  0.14641  0.42062  0.53457  1.0000
  H   H228      1.0  0.12819  0.39664  0.51925  1.0000
  C   C377      1.0  0.11968  0.55104  0.35122  1.0000
  C   C378      1.0  0.12053  0.56400  0.43383  1.0000
  C   C379      1.0  0.12713  0.58956  0.43928  1.0000
  C   C380      1.0  0.13225  0.60300  0.35916  1.0000
  C   C381      1.0  0.13785  0.62960  0.35703  1.0000
  C   C382      1.0  0.12941  0.64795  0.41560  1.0000
  C   C383      1.0  0.13445  0.67385  0.40979  1.0000
  C   C384      1.0  0.14793  0.68264  0.34388  1.0000
  H   H229      1.0  0.11876  0.64298  0.46137  1.0000
  H   H230      1.0  0.12819  0.68629  0.45464  1.0000
  H   H231      1.0  0.11612  0.55482  0.49125  1.0000
  N   N21       1.0  0.12948  0.60092  0.52500  1.0000
  O   O41       1.0  0.11339  0.60135  0.56852  1.0000
  O   O42       1.0  0.14243  0.58958  0.57120  1.0000
  C   C385      1.0  0.88800  0.45683  0.35404  1.0000
  C   C386      1.0  0.88741  0.44381  0.43662  1.0000
  C   C387      1.0  0.88080  0.41826  0.44233  1.0000
  C   C388      1.0  0.87543  0.40485  0.36247  1.0000
  C   C389      1.0  0.86982  0.37824  0.36051  1.0000
  C   C390      1.0  0.87836  0.35987  0.41867  1.0000
  C   C391      1.0  0.87330  0.33397  0.41294  1.0000
  C   C392      1.0  0.85968  0.32519  0.34759  1.0000
  H   H232      1.0  0.88913  0.36480  0.46387  1.0000
  H   H233      1.0  0.87966  0.32152  0.45750  1.0000
  H   H234      1.0  0.89200  0.45296  0.49380  1.0000
  N   N22       1.0  0.87869  0.40687  0.52813  1.0000
  O   O43       1.0  0.89490  0.40639  0.57071  1.0000
  O   O44       1.0  0.86589  0.41820  0.57514  1.0000
  C   C393      1.0  0.52487  0.00193  0.40620  1.0000
  C   C394      1.0  0.54588  0.00249  0.41023  1.0000
  H   H235      1.0  0.55297  0.00134  0.47113  1.0000
  C   C395      1.0  0.46207  0.99154  0.39850  1.0000
  C   C396      1.0  0.48312  0.99164  0.39549  1.0000
  H   H236      1.0  0.45496  0.98307  0.45165  1.0000
  C   C397      1.0  0.49487  0.98094  0.47154  1.0000
  C   C398      1.0  0.51318  0.99813  0.49045  1.0000
  H   H237      1.0  0.49990  0.96182  0.45335  1.0000
  H   H238      1.0  0.48596  0.97944  0.53288  1.0000
  H   H239      1.0  0.52217  0.98931  0.54332  1.0000
  H   H240      1.0  0.50817  0.01669  0.51489  1.0000
  C   C399      1.0  0.02489  0.50157  0.40618  1.0000
  C   C400      1.0  0.04590  0.50205  0.41023  1.0000
  H   H241      1.0  0.05299  0.50060  0.47105  1.0000
  C   C401      1.0  0.96206  0.49134  0.39793  1.0000
  C   C402      1.0  0.98312  0.49145  0.39496  1.0000
  H   H242      1.0  0.95495  0.48263  0.45058  1.0000
  C   C403      1.0  0.99485  0.48037  0.47037  1.0000
  C   C404      1.0  0.01320  0.49742  0.49022  1.0000
  H   H243      1.0  0.99985  0.46133  0.45111  1.0000
  H   H244      1.0  0.98594  0.47863  0.53164  1.0000
  H   H245      1.0  0.02217  0.48834  0.54257  1.0000
  H   H246      1.0  0.00822  0.51588  0.51570  1.0000
  C   C405      1.0  0.19997  0.25968  0.35079  1.0000
  C   C406      1.0  0.21069  0.26273  0.43150  1.0000
  C   C407      1.0  0.23179  0.26044  0.43499  1.0000
  C   C408      1.0  0.24292  0.25614  0.35450  1.0000
  C   C409      1.0  0.26459  0.25393  0.35074  1.0000
  C   C410      1.0  0.27781  0.26716  0.40890  1.0000
  C   C411      1.0  0.29869  0.26406  0.40405  1.0000
  C   C412      1.0  0.30746  0.24787  0.33944  1.0000
  H   H247      1.0  0.27248  0.27974  0.45523  1.0000
  H   H248      1.0  0.30744  0.27318  0.45034  1.0000
  H   H249      1.0  0.20301  0.26663  0.48942  1.0000
  N   N23       1.0  0.24137  0.26113  0.51981  1.0000
  O   O45       1.0  0.23839  0.28182  0.56014  1.0000
  O   O46       1.0  0.23582  0.24316  0.56967  1.0000
  C   C413      1.0  0.80776  0.74808  0.35175  1.0000
  C   C414      1.0  0.79695  0.74505  0.43225  1.0000
  C   C415      1.0  0.77585  0.74730  0.43525  1.0000
  C   C416      1.0  0.76480  0.75157  0.35450  1.0000
  C   C417      1.0  0.74314  0.75378  0.35025  1.0000
  C   C418      1.0  0.72985  0.74060  0.40822  1.0000
  C   C419      1.0  0.70897  0.74370  0.40287  1.0000
  C   C420      1.0  0.70029  0.75990  0.33806  1.0000
  H   H250      1.0  0.73512  0.72802  0.45470  1.0000
  H   H251      1.0  0.70017  0.73464  0.44909  1.0000
  H   H252      1.0  0.80457  0.74118  0.49036  1.0000
  N   N24       1.0  0.76618  0.74664  0.51986  1.0000
  O   O47       1.0  0.76912  0.72596  0.56033  1.0000
  O   O48       1.0  0.77166  0.76462  0.56977  1.0000
  C   C421      1.0  0.77582  0.25168  0.41040  1.0000
  C   C422      1.0  0.79688  0.25385  0.41210  1.0000
  H   H253      1.0  0.80438  0.25179  0.47165  1.0000
  C   C423      1.0  0.71317  0.23608  0.40680  1.0000
  C   C424      1.0  0.73413  0.23931  0.40309  1.0000
  H   H254      1.0  0.70722  0.22480  0.45616  1.0000
  C   C425      1.0  0.74701  0.22735  0.47282  1.0000
  C   C426      1.0  0.76503  0.24476  0.49449  1.0000
  H   H255      1.0  0.75234  0.20904  0.44749  1.0000
  H   H256      1.0  0.73874  0.22384  0.53499  1.0000
  H   H257      1.0  0.77476  0.23486  0.54205  1.0000
  H   H258      1.0  0.75976  0.26221  0.52671  1.0000
  C   C427      1.0  0.23169  0.75600  0.40959  1.0000
  C   C428      1.0  0.21062  0.75384  0.41046  1.0000
  H   H259      1.0  0.20301  0.75586  0.46976  1.0000
  C   C429      1.0  0.29434  0.77162  0.40847  1.0000
  C   C430      1.0  0.27339  0.76838  0.40395  1.0000
  H   H260      1.0  0.30020  0.78286  0.45815  1.0000
  C   C431      1.0  0.26038  0.78029  0.47331  1.0000
  C   C432      1.0  0.24232  0.76286  0.49414  1.0000
  H   H261      1.0  0.25508  0.79862  0.44796  1.0000
  H   H262      1.0  0.26853  0.78375  0.53581  1.0000
  H   H263      1.0  0.23251  0.77271  0.54145  1.0000
  H   H264      1.0  0.24754  0.74537  0.52636  1.0000
