data_image0
_chemical_formula_structural       C2HC3HOC3NO2C4H2C2HOC2NO2C2HC3HOC3NO2C4H2C2HOC2NO2C2HCHC2NONOCHC4HNOCHC3HC4H2NO2HC2HNOC2HCHC2NONOCHC4HNOCHC3HC4H2NO2HC2HNON2C2HC2HC4HO2C3HCHC4H2C2HO2C2HC2HC4HO2C3HCHC4H2C2HO2C2HC4HNO2C4HNO2C4H2C2HNO2C2HNO2C2HC4HNO2C4HNO2C4H2C2HNO2C2HNO2C2HC2HC2HC2HC2HC2HC4HNO2C4HNO2C4HNO2C4HNO2C4HNO2C4HNO2C4H2C4H2C4H2C4H2C4H2C4H2C2HNO2C2HNO2C2HNO2C2HNO2C2HNO2C2HNO2C2HC2HC2HC2HC2HC2HC4HNO2C4HNO2C4HNO2C4HNO2C4HNO2C4HNO2C4H2C4H2C4H2C4H2C4H2C4H2C2HNO2C2HNO2C2HNO2C2HNO2C2HNO2C2HNO2
_chemical_formula_sum              "C288 H120 O96 N48"
_cell_length_a       46.8763
_cell_length_b       46.8762
_cell_length_c       14.7961
_cell_angle_alpha    90
_cell_angle_beta     90
_cell_angle_gamma    120

_space_group_name_H-M_alt    "P 1"
_space_group_IT_number       1

loop_
  _space_group_symop_operation_xyz
  'x, y, z'

loop_
  _atom_site_type_symbol
  _atom_site_label
  _atom_site_symmetry_multiplicity
  _atom_site_fract_x
  _atom_site_fract_y
  _atom_site_fract_z
  _atom_site_occupancy
  C   C1        1.0  0.04759  0.30109  0.34638  1.0000
  C   C2        1.0  0.08248  0.31877  0.34598  1.0000
  H   H1        1.0  0.03676  0.31521  0.34656  1.0000
  C   C3        1.0  0.10138  0.25068  0.34573  1.0000
  C   C4        1.0  0.11719  0.25087  0.26427  1.0000
  C   C5        1.0  0.14784  0.25169  0.26322  1.0000
  H   H2        1.0  0.10808  0.25400  0.20444  1.0000
  O   O1        1.0  0.14801  0.23165  0.12802  1.0000
  C   C6        1.0  0.14758  0.40009  0.26462  1.0000
  C   C7        1.0  0.11778  0.36940  0.26340  1.0000
  C   C8        1.0  0.10214  0.35365  0.34577  1.0000
  N   N1        1.0  0.10479  0.35262  0.18054  1.0000
  O   O2        1.0  0.12452  0.34593  0.14127  1.0000
  O   O3        1.0  0.09775  0.36922  0.12790  1.0000
  C   C9        1.0  0.02824  0.26575  0.34640  1.0000
  C   C10       1.0  0.09924  0.30092  0.34571  1.0000
  C   C11       1.0  0.08216  0.26631  0.34598  1.0000
  C   C12       1.0  0.04727  0.24944  0.34627  1.0000
  H   H3        1.0  0.12455  0.31347  0.34547  1.0000
  H   H4        1.0  0.03619  0.22447  0.34628  1.0000
  C   C13       1.0  0.14781  0.25165  0.42842  1.0000
  C   C14       1.0  0.11714  0.25082  0.42728  1.0000
  H   H5        1.0  0.10799  0.25387  0.48712  1.0000
  O   O4        1.0  0.14784  0.23145  0.56351  1.0000
  C   C15       1.0  0.11751  0.36945  0.42837  1.0000
  C   C16       1.0  0.14732  0.40015  0.42749  1.0000
  N   N2        1.0  0.10431  0.35272  0.51117  1.0000
  O   O5        1.0  0.09713  0.36935  0.56330  1.0000
  O   O6        1.0  0.12393  0.34605  0.55114  1.0000
  C   C17       1.0  0.04759  0.80109  0.34638  1.0000
  C   C18       1.0  0.08248  0.81877  0.34598  1.0000
  H   H6        1.0  0.03676  0.81521  0.34656  1.0000
  C   C19       1.0  0.10138  0.75068  0.34573  1.0000
  C   C20       1.0  0.11719  0.75087  0.26427  1.0000
  C   C21       1.0  0.14784  0.75170  0.26322  1.0000
  H   H7        1.0  0.10808  0.75400  0.20444  1.0000
  O   O7        1.0  0.14801  0.73165  0.12802  1.0000
  C   C22       1.0  0.14758  0.90009  0.26462  1.0000
  C   C23       1.0  0.11778  0.86940  0.26340  1.0000
  C   C24       1.0  0.10213  0.85365  0.34577  1.0000
  N   N3        1.0  0.10479  0.85262  0.18054  1.0000
  O   O8        1.0  0.12452  0.84593  0.14127  1.0000
  O   O9        1.0  0.09774  0.86922  0.12790  1.0000
  C   C25       1.0  0.02824  0.76575  0.34640  1.0000
  C   C26       1.0  0.09924  0.80092  0.34571  1.0000
  C   C27       1.0  0.08216  0.76630  0.34598  1.0000
  C   C28       1.0  0.04727  0.74944  0.34627  1.0000
  H   H8        1.0  0.12455  0.81347  0.34547  1.0000
  H   H9        1.0  0.03619  0.72447  0.34628  1.0000
  C   C29       1.0  0.14781  0.75165  0.42842  1.0000
  C   C30       1.0  0.11714  0.75082  0.42728  1.0000
  H   H10       1.0  0.10799  0.75387  0.48712  1.0000
  O   O10       1.0  0.14784  0.73145  0.56351  1.0000
  C   C31       1.0  0.11752  0.86945  0.42837  1.0000
  C   C32       1.0  0.14732  0.90015  0.42749  1.0000
  N   N4        1.0  0.10431  0.85272  0.51117  1.0000
  O   O11       1.0  0.09713  0.86935  0.56330  1.0000
  O   O12       1.0  0.12393  0.84605  0.55114  1.0000
  C   C33       1.0  0.21609  0.24991  0.34612  1.0000
  C   C34       1.0  0.19840  0.26712  0.34605  1.0000
  H   H11       1.0  0.20196  0.22496  0.34606  1.0000
  C   C35       1.0  0.25340  0.04417  0.34626  1.0000
  H   H12       1.0  0.22845  0.03336  0.34623  1.0000
  C   C36       1.0  0.25009  0.43477  0.34602  1.0000
  C   C37       1.0  0.16351  0.25189  0.34581  1.0000
  N   N5        1.0  0.16464  0.25535  0.18047  1.0000
  O   O13       1.0  0.17136  0.28173  0.14088  1.0000
  N   N6        1.0  0.26163  0.41254  0.18068  1.0000
  O   O14       1.0  0.23520  0.39283  0.14137  1.0000
  C   C38       1.0  0.16313  0.41592  0.34619  1.0000
  H   H13       1.0  0.15986  0.40913  0.20482  1.0000
  C   C39       1.0  0.25411  0.15969  0.34577  1.0000
  C   C40       1.0  0.25430  0.14399  0.26447  1.0000
  C   C41       1.0  0.25515  0.11417  0.26357  1.0000
  C   C42       1.0  0.25538  0.09870  0.34617  1.0000
  H   H14       1.0  0.25743  0.15619  0.20459  1.0000
  N   N7        1.0  0.25881  0.10104  0.18080  1.0000
  O   O15       1.0  0.23509  0.09393  0.12836  1.0000
  C   C43       1.0  0.25289  0.21253  0.34623  1.0000
  H   H15       1.0  0.22792  0.19864  0.34622  1.0000
  C   C44       1.0  0.25143  0.26589  0.34622  1.0000
  C   C45       1.0  0.21627  0.30173  0.34597  1.0000
  C   C46       1.0  0.25088  0.31925  0.34606  1.0000
  H   H16       1.0  0.20373  0.31450  0.34588  1.0000
  C   C47       1.0  0.25133  0.48902  0.34631  1.0000
  C   C48       1.0  0.21548  0.41802  0.34600  1.0000
  C   C49       1.0  0.19796  0.43511  0.34607  1.0000
  C   C50       1.0  0.21598  0.46999  0.34631  1.0000
  H   H17       1.0  0.20271  0.39271  0.34596  1.0000
  H   H18       1.0  0.20209  0.48108  0.34644  1.0000
  N   N8        1.0  0.16451  0.25521  0.51128  1.0000
  O   O16       1.0  0.17121  0.28155  0.55105  1.0000
  O   O17       1.0  0.23593  0.39327  0.55128  1.0000
  H   H19       1.0  0.15946  0.40921  0.48743  1.0000
  C   C51       1.0  0.25509  0.11424  0.42856  1.0000
  C   C52       1.0  0.25423  0.14405  0.42733  1.0000
  H   H20       1.0  0.25727  0.15626  0.48716  1.0000
  N   N9        1.0  0.25868  0.10115  0.51147  1.0000
  O   O18       1.0  0.23493  0.09406  0.56373  1.0000
  C   C53       1.0  0.21609  0.74991  0.34612  1.0000
  C   C54       1.0  0.19840  0.76712  0.34605  1.0000
  H   H21       1.0  0.20196  0.72496  0.34606  1.0000
  C   C55       1.0  0.25340  0.54417  0.34626  1.0000
  H   H22       1.0  0.22845  0.53336  0.34623  1.0000
  C   C56       1.0  0.25009  0.93477  0.34602  1.0000
  C   C57       1.0  0.16351  0.75189  0.34581  1.0000
  N   N10       1.0  0.16464  0.75535  0.18047  1.0000
  O   O19       1.0  0.17136  0.78173  0.14088  1.0000
  N   N11       1.0  0.26163  0.91254  0.18068  1.0000
  O   O20       1.0  0.23520  0.89283  0.14137  1.0000
  C   C58       1.0  0.16313  0.91592  0.34619  1.0000
  H   H23       1.0  0.15986  0.90913  0.20482  1.0000
  C   C59       1.0  0.25411  0.65969  0.34577  1.0000
  C   C60       1.0  0.25430  0.64399  0.26447  1.0000
  C   C61       1.0  0.25515  0.61417  0.26357  1.0000
  C   C62       1.0  0.25538  0.59870  0.34617  1.0000
  H   H24       1.0  0.25743  0.65619  0.20459  1.0000
  N   N12       1.0  0.25881  0.60104  0.18080  1.0000
  O   O21       1.0  0.23509  0.59393  0.12836  1.0000
  C   C63       1.0  0.25289  0.71253  0.34623  1.0000
  H   H25       1.0  0.22792  0.69864  0.34622  1.0000
  C   C64       1.0  0.25143  0.76589  0.34622  1.0000
  C   C65       1.0  0.21627  0.80173  0.34597  1.0000
  C   C66       1.0  0.25088  0.81925  0.34606  1.0000
  H   H26       1.0  0.20373  0.81450  0.34588  1.0000
  C   C67       1.0  0.25133  0.98902  0.34631  1.0000
  C   C68       1.0  0.21548  0.91802  0.34600  1.0000
  C   C69       1.0  0.19795  0.93511  0.34607  1.0000
  C   C70       1.0  0.21597  0.96999  0.34631  1.0000
  H   H27       1.0  0.20271  0.89271  0.34596  1.0000
  H   H28       1.0  0.20209  0.98108  0.34644  1.0000
  N   N13       1.0  0.16451  0.75521  0.51128  1.0000
  O   O22       1.0  0.17121  0.78155  0.55105  1.0000
  O   O23       1.0  0.23593  0.89327  0.55128  1.0000
  H   H29       1.0  0.15946  0.90921  0.48743  1.0000
  C   C71       1.0  0.25509  0.61424  0.42856  1.0000
  C   C72       1.0  0.25423  0.64405  0.42733  1.0000
  H   H30       1.0  0.25727  0.65626  0.48716  1.0000
  N   N14       1.0  0.25868  0.60115  0.51147  1.0000
  O   O24       1.0  0.23493  0.59406  0.56373  1.0000
  N   N15       1.0  0.26224  0.41290  0.51134  1.0000
  N   N16       1.0  0.26224  0.91290  0.51134  1.0000
  C   C73       1.0  0.32224  0.24664  0.34613  1.0000
  C   C74       1.0  0.30455  0.26385  0.34619  1.0000
  H   H31       1.0  0.31868  0.28880  0.34613  1.0000
  C   C75       1.0  0.27062  0.07906  0.34619  1.0000
  C   C76       1.0  0.26730  0.46966  0.34623  1.0000
  H   H32       1.0  0.29225  0.48048  0.34627  1.0000
  C   C77       1.0  0.26652  0.35406  0.34606  1.0000
  C   C78       1.0  0.26626  0.36970  0.26464  1.0000
  C   C79       1.0  0.26539  0.39951  0.26353  1.0000
  C   C80       1.0  0.26531  0.41513  0.34600  1.0000
  H   H33       1.0  0.26300  0.35744  0.20480  1.0000
  O   O25       1.0  0.28527  0.41957  0.12804  1.0000
  O   O26       1.0  0.28518  0.12069  0.14117  1.0000
  C   C81       1.0  0.26921  0.24787  0.34624  1.0000
  C   C82       1.0  0.26976  0.19452  0.34614  1.0000
  C   C83       1.0  0.30438  0.21204  0.34599  1.0000
  H   H34       1.0  0.31691  0.19926  0.34583  1.0000
  C   C84       1.0  0.26775  0.30124  0.34627  1.0000
  H   H35       1.0  0.29272  0.31512  0.34640  1.0000
  C   C85       1.0  0.26938  0.02482  0.34633  1.0000
  C   C86       1.0  0.30473  0.04384  0.34635  1.0000
  C   C87       1.0  0.32275  0.07873  0.34620  1.0000
  C   C88       1.0  0.30522  0.09581  0.34619  1.0000
  H   H36       1.0  0.31861  0.03276  0.34639  1.0000
  H   H37       1.0  0.31799  0.12113  0.34616  1.0000
  C   C89       1.0  0.26574  0.39971  0.42847  1.0000
  C   C90       1.0  0.26655  0.36987  0.42740  1.0000
  H   H38       1.0  0.26355  0.35773  0.48731  1.0000
  O   O27       1.0  0.28604  0.42001  0.56343  1.0000
  O   O28       1.0  0.28502  0.12082  0.55118  1.0000
  C   C91       1.0  0.32224  0.74665  0.34613  1.0000
  C   C92       1.0  0.30455  0.76385  0.34619  1.0000
  H   H39       1.0  0.31868  0.78880  0.34613  1.0000
  C   C93       1.0  0.27062  0.57906  0.34619  1.0000
  C   C94       1.0  0.26730  0.96966  0.34623  1.0000
  H   H40       1.0  0.29225  0.98048  0.34627  1.0000
  C   C95       1.0  0.26652  0.85406  0.34606  1.0000
  C   C96       1.0  0.26626  0.86970  0.26464  1.0000
  C   C97       1.0  0.26539  0.89951  0.26353  1.0000
  C   C98       1.0  0.26531  0.91513  0.34600  1.0000
  H   H41       1.0  0.26300  0.85744  0.20480  1.0000
  O   O29       1.0  0.28527  0.91957  0.12804  1.0000
  O   O30       1.0  0.28518  0.62069  0.14117  1.0000
  C   C99       1.0  0.26921  0.74787  0.34624  1.0000
  C   C100      1.0  0.26976  0.69452  0.34614  1.0000
  C   C101      1.0  0.30438  0.71204  0.34599  1.0000
  H   H42       1.0  0.31691  0.69926  0.34583  1.0000
  C   C102      1.0  0.26775  0.80124  0.34627  1.0000
  H   H43       1.0  0.29272  0.81512  0.34640  1.0000
  C   C103      1.0  0.26938  0.52482  0.34633  1.0000
  C   C104      1.0  0.30473  0.54384  0.34635  1.0000
  C   C105      1.0  0.32275  0.57873  0.34620  1.0000
  C   C106      1.0  0.30522  0.59581  0.34619  1.0000
  H   H44       1.0  0.31861  0.53276  0.34639  1.0000
  H   H45       1.0  0.31799  0.62112  0.34616  1.0000
  C   C107      1.0  0.26573  0.89971  0.42847  1.0000
  C   C108      1.0  0.26655  0.86987  0.42740  1.0000
  H   H46       1.0  0.26355  0.85773  0.48731  1.0000
  O   O31       1.0  0.28604  0.92002  0.56343  1.0000
  O   O32       1.0  0.28502  0.62082  0.55118  1.0000
  C   C109      1.0  0.43818  0.19496  0.34598  1.0000
  C   C110      1.0  0.47308  0.21265  0.34648  1.0000
  H   H47       1.0  0.48390  0.19853  0.34676  1.0000
  C   C111      1.0  0.41929  0.26305  0.34558  1.0000
  C   C112      1.0  0.40342  0.26287  0.26426  1.0000
  C   C113      1.0  0.37278  0.26210  0.26323  1.0000
  C   C114      1.0  0.35714  0.26188  0.34586  1.0000
  H   H48       1.0  0.41250  0.25979  0.20434  1.0000
  N   N17       1.0  0.35600  0.25850  0.18049  1.0000
  O   O33       1.0  0.34925  0.23213  0.14081  1.0000
  O   O34       1.0  0.37265  0.28221  0.12811  1.0000
  C   C115      1.0  0.35759  0.09792  0.34614  1.0000
  C   C116      1.0  0.37311  0.11376  0.26460  1.0000
  C   C117      1.0  0.40292  0.14445  0.26352  1.0000
  C   C118      1.0  0.41853  0.16008  0.34608  1.0000
  H   H49       1.0  0.36082  0.10476  0.20480  1.0000
  N   N18       1.0  0.41595  0.16125  0.18069  1.0000
  O   O35       1.0  0.39625  0.16797  0.14138  1.0000
  O   O36       1.0  0.42298  0.14464  0.12804  1.0000
  C   C119      1.0  0.49243  0.24799  0.34640  1.0000
  C   C120      1.0  0.47339  0.26430  0.34619  1.0000
  C   C121      1.0  0.43851  0.24744  0.34596  1.0000
  C   C122      1.0  0.42143  0.21282  0.34574  1.0000
  H   H50       1.0  0.48447  0.28927  0.34612  1.0000
  H   H51       1.0  0.39612  0.20027  0.34554  1.0000
  C   C123      1.0  0.37285  0.26208  0.42839  1.0000
  C   C124      1.0  0.40353  0.26294  0.42715  1.0000
  H   H52       1.0  0.41262  0.25980  0.48699  1.0000
  N   N19       1.0  0.35614  0.25847  0.51129  1.0000
  O   O37       1.0  0.37282  0.28220  0.56359  1.0000
  O   O38       1.0  0.34947  0.23211  0.55095  1.0000
  C   C125      1.0  0.40316  0.14426  0.42861  1.0000
  C   C126      1.0  0.37333  0.11360  0.42761  1.0000
  H   H53       1.0  0.36117  0.10443  0.48749  1.0000
  N   N20       1.0  0.41639  0.16096  0.51143  1.0000
  O   O39       1.0  0.42353  0.14429  0.56348  1.0000
  O   O40       1.0  0.39677  0.16764  0.55146  1.0000
  C   C127      1.0  0.43818  0.69497  0.34598  1.0000
  C   C128      1.0  0.47307  0.71265  0.34648  1.0000
  H   H54       1.0  0.48390  0.69853  0.34676  1.0000
  C   C129      1.0  0.41929  0.76305  0.34558  1.0000
  C   C130      1.0  0.40342  0.76287  0.26426  1.0000
  C   C131      1.0  0.37278  0.76210  0.26323  1.0000
  C   C132      1.0  0.35714  0.76188  0.34586  1.0000
  H   H55       1.0  0.41250  0.75979  0.20434  1.0000
  N   N21       1.0  0.35600  0.75850  0.18049  1.0000
  O   O41       1.0  0.34925  0.73213  0.14081  1.0000
  O   O42       1.0  0.37265  0.78221  0.12811  1.0000
  C   C133      1.0  0.35759  0.59792  0.34614  1.0000
  C   C134      1.0  0.37311  0.61376  0.26460  1.0000
  C   C135      1.0  0.40292  0.64445  0.26352  1.0000
  C   C136      1.0  0.41853  0.66008  0.34608  1.0000
  H   H56       1.0  0.36082  0.60476  0.20480  1.0000
  N   N22       1.0  0.41595  0.66125  0.18069  1.0000
  O   O43       1.0  0.39624  0.66797  0.14138  1.0000
  O   O44       1.0  0.42298  0.64465  0.12804  1.0000
  C   C137      1.0  0.49243  0.74799  0.34640  1.0000
  C   C138      1.0  0.47339  0.76430  0.34619  1.0000
  C   C139      1.0  0.43851  0.74744  0.34596  1.0000
  C   C140      1.0  0.42143  0.71282  0.34574  1.0000
  H   H57       1.0  0.48447  0.78927  0.34612  1.0000
  H   H58       1.0  0.39612  0.70027  0.34554  1.0000
  C   C141      1.0  0.37285  0.76207  0.42839  1.0000
  C   C142      1.0  0.40353  0.76294  0.42715  1.0000
  H   H59       1.0  0.41262  0.75980  0.48699  1.0000
  N   N23       1.0  0.35614  0.75847  0.51129  1.0000
  O   O45       1.0  0.37282  0.78220  0.56359  1.0000
  O   O46       1.0  0.34947  0.73211  0.55095  1.0000
  C   C143      1.0  0.40316  0.64426  0.42861  1.0000
  C   C144      1.0  0.37332  0.61360  0.42761  1.0000
  H   H60       1.0  0.36117  0.60443  0.48749  1.0000
  N   N24       1.0  0.41639  0.66096  0.51143  1.0000
  O   O47       1.0  0.42353  0.64429  0.56348  1.0000
  O   O48       1.0  0.39677  0.66764  0.55146  1.0000
  C   C145      1.0  0.93818  0.19496  0.34598  1.0000
  C   C146      1.0  0.97307  0.21265  0.34648  1.0000
  H   H61       1.0  0.98390  0.19853  0.34676  1.0000
  C   C147      1.0  0.54759  0.30109  0.34638  1.0000
  C   C148      1.0  0.58248  0.31877  0.34598  1.0000
  H   H62       1.0  0.53676  0.31521  0.34656  1.0000
  C   C149      1.0  0.82224  0.24664  0.34613  1.0000
  C   C150      1.0  0.80455  0.26385  0.34619  1.0000
  H   H63       1.0  0.81868  0.28880  0.34613  1.0000
  C   C151      1.0  0.71609  0.24991  0.34612  1.0000
  C   C152      1.0  0.69840  0.26712  0.34605  1.0000
  H   H64       1.0  0.70196  0.22496  0.34606  1.0000
  C   C153      1.0  0.77061  0.07906  0.34619  1.0000
  C   C154      1.0  0.75340  0.04417  0.34626  1.0000
  H   H65       1.0  0.72845  0.03336  0.34623  1.0000
  C   C155      1.0  0.76730  0.46966  0.34623  1.0000
  C   C156      1.0  0.75009  0.43477  0.34602  1.0000
  H   H66       1.0  0.79225  0.48048  0.34627  1.0000
  C   C157      1.0  0.60138  0.25068  0.34573  1.0000
  C   C158      1.0  0.61719  0.25087  0.26427  1.0000
  C   C159      1.0  0.64784  0.25169  0.26322  1.0000
  C   C160      1.0  0.66351  0.25189  0.34581  1.0000
  H   H67       1.0  0.60808  0.25400  0.20444  1.0000
  N   N25       1.0  0.66464  0.25535  0.18047  1.0000
  O   O49       1.0  0.67136  0.28173  0.14088  1.0000
  O   O50       1.0  0.64801  0.23165  0.12802  1.0000
  C   C161      1.0  0.76652  0.35406  0.34606  1.0000
  C   C162      1.0  0.76626  0.36970  0.26464  1.0000
  C   C163      1.0  0.76539  0.39951  0.26353  1.0000
  C   C164      1.0  0.76531  0.41513  0.34600  1.0000
  H   H68       1.0  0.76300  0.35744  0.20480  1.0000
  N   N26       1.0  0.76163  0.41254  0.18068  1.0000
  O   O51       1.0  0.73520  0.39283  0.14137  1.0000
  O   O52       1.0  0.78527  0.41957  0.12804  1.0000
  C   C165      1.0  0.66313  0.41592  0.34619  1.0000
  C   C166      1.0  0.64758  0.40009  0.26462  1.0000
  C   C167      1.0  0.61778  0.36940  0.26340  1.0000
  C   C168      1.0  0.60213  0.35365  0.34577  1.0000
  H   H69       1.0  0.65986  0.40913  0.20482  1.0000
  N   N27       1.0  0.60479  0.35262  0.18054  1.0000
  O   O53       1.0  0.62452  0.34593  0.14127  1.0000
  O   O54       1.0  0.59774  0.36922  0.12790  1.0000
  C   C169      1.0  0.91929  0.26305  0.34558  1.0000
  C   C170      1.0  0.90342  0.26287  0.26426  1.0000
  C   C171      1.0  0.87278  0.26210  0.26323  1.0000
  C   C172      1.0  0.85713  0.26188  0.34586  1.0000
  H   H70       1.0  0.91250  0.25979  0.20434  1.0000
  N   N28       1.0  0.85600  0.25850  0.18049  1.0000
  O   O55       1.0  0.84925  0.23213  0.14081  1.0000
  O   O56       1.0  0.87265  0.28221  0.12811  1.0000
  C   C173      1.0  0.75411  0.15969  0.34577  1.0000
  C   C174      1.0  0.75430  0.14399  0.26447  1.0000
  C   C175      1.0  0.75515  0.11417  0.26357  1.0000
  C   C176      1.0  0.75538  0.09870  0.34617  1.0000
  H   H71       1.0  0.75743  0.15619  0.20459  1.0000
  N   N29       1.0  0.75881  0.10104  0.18080  1.0000
  O   O57       1.0  0.78518  0.12069  0.14117  1.0000
  O   O58       1.0  0.73509  0.09393  0.12836  1.0000
  C   C177      1.0  0.85759  0.09792  0.34614  1.0000
  C   C178      1.0  0.87311  0.11376  0.26460  1.0000
  C   C179      1.0  0.90292  0.14445  0.26352  1.0000
  C   C180      1.0  0.91853  0.16008  0.34608  1.0000
  H   H72       1.0  0.86082  0.10476  0.20480  1.0000
  N   N30       1.0  0.91595  0.16125  0.18069  1.0000
  O   O59       1.0  0.89624  0.16797  0.14138  1.0000
  O   O60       1.0  0.92298  0.14464  0.12804  1.0000
  C   C181      1.0  0.99243  0.24799  0.34640  1.0000
  C   C182      1.0  0.97339  0.26430  0.34619  1.0000
  C   C183      1.0  0.93851  0.24744  0.34596  1.0000
  C   C184      1.0  0.92143  0.21282  0.34574  1.0000
  H   H73       1.0  0.98447  0.28927  0.34612  1.0000
  H   H74       1.0  0.89612  0.20027  0.34554  1.0000
  C   C185      1.0  0.52824  0.26575  0.34640  1.0000
  C   C186      1.0  0.59924  0.30092  0.34571  1.0000
  C   C187      1.0  0.58216  0.26631  0.34598  1.0000
  C   C188      1.0  0.54727  0.24944  0.34627  1.0000
  H   H75       1.0  0.62455  0.31347  0.34547  1.0000
  H   H76       1.0  0.53619  0.22447  0.34628  1.0000
  C   C189      1.0  0.76921  0.24787  0.34624  1.0000
  C   C190      1.0  0.75289  0.21253  0.34623  1.0000
  C   C191      1.0  0.76976  0.19452  0.34614  1.0000
  C   C192      1.0  0.80438  0.21204  0.34599  1.0000
  H   H77       1.0  0.72792  0.19864  0.34622  1.0000
  H   H78       1.0  0.81691  0.19926  0.34583  1.0000
  C   C193      1.0  0.75143  0.26589  0.34622  1.0000
  C   C194      1.0  0.71627  0.30173  0.34597  1.0000
  C   C195      1.0  0.75088  0.31925  0.34606  1.0000
  C   C196      1.0  0.76775  0.30124  0.34627  1.0000
  H   H79       1.0  0.70373  0.31450  0.34588  1.0000
  H   H80       1.0  0.79272  0.31512  0.34640  1.0000
  C   C197      1.0  0.76938  0.02482  0.34633  1.0000
  C   C198      1.0  0.80473  0.04384  0.34635  1.0000
  C   C199      1.0  0.82275  0.07873  0.34620  1.0000
  C   C200      1.0  0.80522  0.09581  0.34619  1.0000
  H   H81       1.0  0.81861  0.03276  0.34639  1.0000
  H   H82       1.0  0.81799  0.12113  0.34616  1.0000
  C   C201      1.0  0.75133  0.48902  0.34631  1.0000
  C   C202      1.0  0.71548  0.41802  0.34600  1.0000
  C   C203      1.0  0.69795  0.43511  0.34607  1.0000
  C   C204      1.0  0.71598  0.46999  0.34631  1.0000
  H   H83       1.0  0.70271  0.39271  0.34596  1.0000
  H   H84       1.0  0.70209  0.48108  0.34644  1.0000
  C   C205      1.0  0.64781  0.25165  0.42842  1.0000
  C   C206      1.0  0.61714  0.25082  0.42728  1.0000
  H   H85       1.0  0.60799  0.25387  0.48712  1.0000
  N   N31       1.0  0.66451  0.25521  0.51128  1.0000
  O   O61       1.0  0.64784  0.23145  0.56351  1.0000
  O   O62       1.0  0.67121  0.28155  0.55105  1.0000
  C   C207      1.0  0.76574  0.39971  0.42847  1.0000
  C   C208      1.0  0.76655  0.36987  0.42740  1.0000
  H   H86       1.0  0.76355  0.35773  0.48731  1.0000
  N   N32       1.0  0.76224  0.41290  0.51134  1.0000
  O   O63       1.0  0.78603  0.42001  0.56343  1.0000
  O   O64       1.0  0.73593  0.39327  0.55128  1.0000
  C   C209      1.0  0.61752  0.36945  0.42837  1.0000
  C   C210      1.0  0.64732  0.40015  0.42749  1.0000
  H   H87       1.0  0.65947  0.40921  0.48743  1.0000
  N   N33       1.0  0.60431  0.35272  0.51117  1.0000
  O   O65       1.0  0.59713  0.36935  0.56330  1.0000
  O   O66       1.0  0.62393  0.34605  0.55114  1.0000
  C   C211      1.0  0.87285  0.26208  0.42839  1.0000
  C   C212      1.0  0.90353  0.26294  0.42715  1.0000
  H   H88       1.0  0.91262  0.25980  0.48699  1.0000
  N   N34       1.0  0.85614  0.25847  0.51129  1.0000
  O   O67       1.0  0.87282  0.28220  0.56359  1.0000
  O   O68       1.0  0.84947  0.23211  0.55095  1.0000
  C   C213      1.0  0.75509  0.11424  0.42856  1.0000
  C   C214      1.0  0.75423  0.14405  0.42733  1.0000
  H   H89       1.0  0.75727  0.15626  0.48716  1.0000
  N   N35       1.0  0.75868  0.10115  0.51147  1.0000
  O   O69       1.0  0.73493  0.09406  0.56373  1.0000
  O   O70       1.0  0.78503  0.12082  0.55118  1.0000
  C   C215      1.0  0.90316  0.14426  0.42861  1.0000
  C   C216      1.0  0.87333  0.11360  0.42761  1.0000
  H   H90       1.0  0.86118  0.10443  0.48749  1.0000
  N   N36       1.0  0.91639  0.16096  0.51143  1.0000
  O   O71       1.0  0.92353  0.14429  0.56348  1.0000
  O   O72       1.0  0.89678  0.16764  0.55146  1.0000
  C   C217      1.0  0.93818  0.69497  0.34598  1.0000
  C   C218      1.0  0.97307  0.71265  0.34648  1.0000
  H   H91       1.0  0.98390  0.69853  0.34676  1.0000
  C   C219      1.0  0.54759  0.80109  0.34638  1.0000
  C   C220      1.0  0.58248  0.81877  0.34598  1.0000
  H   H92       1.0  0.53676  0.81521  0.34656  1.0000
  C   C221      1.0  0.82224  0.74665  0.34613  1.0000
  C   C222      1.0  0.80455  0.76385  0.34619  1.0000
  H   H93       1.0  0.81868  0.78880  0.34613  1.0000
  C   C223      1.0  0.71609  0.74991  0.34612  1.0000
  C   C224      1.0  0.69840  0.76712  0.34605  1.0000
  H   H94       1.0  0.70196  0.72496  0.34606  1.0000
  C   C225      1.0  0.77061  0.57906  0.34619  1.0000
  C   C226      1.0  0.75340  0.54417  0.34626  1.0000
  H   H95       1.0  0.72845  0.53336  0.34623  1.0000
  C   C227      1.0  0.76730  0.96966  0.34623  1.0000
  C   C228      1.0  0.75009  0.93477  0.34602  1.0000
  H   H96       1.0  0.79225  0.98048  0.34627  1.0000
  C   C229      1.0  0.60138  0.75068  0.34573  1.0000
  C   C230      1.0  0.61719  0.75087  0.26427  1.0000
  C   C231      1.0  0.64785  0.75170  0.26322  1.0000
  C   C232      1.0  0.66351  0.75189  0.34581  1.0000
  H   H97       1.0  0.60808  0.75400  0.20444  1.0000
  N   N37       1.0  0.66463  0.75535  0.18047  1.0000
  O   O73       1.0  0.67136  0.78173  0.14088  1.0000
  O   O74       1.0  0.64801  0.73165  0.12802  1.0000
  C   C233      1.0  0.76652  0.85406  0.34606  1.0000
  C   C234      1.0  0.76626  0.86970  0.26464  1.0000
  C   C235      1.0  0.76539  0.89951  0.26353  1.0000
  C   C236      1.0  0.76531  0.91513  0.34600  1.0000
  H   H98       1.0  0.76300  0.85744  0.20480  1.0000
  N   N38       1.0  0.76163  0.91254  0.18068  1.0000
  O   O75       1.0  0.73520  0.89283  0.14137  1.0000
  O   O76       1.0  0.78527  0.91957  0.12804  1.0000
  C   C237      1.0  0.66313  0.91592  0.34619  1.0000
  C   C238      1.0  0.64758  0.90009  0.26462  1.0000
  C   C239      1.0  0.61778  0.86940  0.26340  1.0000
  C   C240      1.0  0.60213  0.85365  0.34577  1.0000
  H   H99       1.0  0.65986  0.90913  0.20482  1.0000
  N   N39       1.0  0.60479  0.85262  0.18054  1.0000
  O   O77       1.0  0.62452  0.84593  0.14127  1.0000
  O   O78       1.0  0.59774  0.86922  0.12790  1.0000
  C   C241      1.0  0.91929  0.76305  0.34558  1.0000
  C   C242      1.0  0.90342  0.76287  0.26426  1.0000
  C   C243      1.0  0.87278  0.76210  0.26323  1.0000
  C   C244      1.0  0.85714  0.76188  0.34586  1.0000
  H   H100      1.0  0.91250  0.75979  0.20434  1.0000
  N   N40       1.0  0.85600  0.75850  0.18049  1.0000
  O   O79       1.0  0.84925  0.73213  0.14081  1.0000
  O   O80       1.0  0.87265  0.78221  0.12811  1.0000
  C   C245      1.0  0.75411  0.65969  0.34577  1.0000
  C   C246      1.0  0.75430  0.64399  0.26447  1.0000
  C   C247      1.0  0.75515  0.61417  0.26357  1.0000
  C   C248      1.0  0.75538  0.59870  0.34617  1.0000
  H   H101      1.0  0.75742  0.65619  0.20459  1.0000
  N   N41       1.0  0.75881  0.60104  0.18080  1.0000
  O   O81       1.0  0.78518  0.62069  0.14117  1.0000
  O   O82       1.0  0.73509  0.59393  0.12836  1.0000
  C   C249      1.0  0.85759  0.59792  0.34614  1.0000
  C   C250      1.0  0.87311  0.61376  0.26460  1.0000
  C   C251      1.0  0.90292  0.64445  0.26352  1.0000
  C   C252      1.0  0.91853  0.66008  0.34608  1.0000
  H   H102      1.0  0.86082  0.60476  0.20480  1.0000
  N   N42       1.0  0.91595  0.66125  0.18069  1.0000
  O   O83       1.0  0.89624  0.66797  0.14138  1.0000
  O   O84       1.0  0.92299  0.64465  0.12804  1.0000
  C   C253      1.0  0.99243  0.74799  0.34640  1.0000
  C   C254      1.0  0.97339  0.76430  0.34619  1.0000
  C   C255      1.0  0.93851  0.74744  0.34596  1.0000
  C   C256      1.0  0.92143  0.71282  0.34574  1.0000
  H   H103      1.0  0.98447  0.78927  0.34612  1.0000
  H   H104      1.0  0.89612  0.70027  0.34554  1.0000
  C   C257      1.0  0.52824  0.76575  0.34640  1.0000
  C   C258      1.0  0.59924  0.80092  0.34571  1.0000
  C   C259      1.0  0.58216  0.76630  0.34598  1.0000
  C   C260      1.0  0.54727  0.74944  0.34627  1.0000
  H   H105      1.0  0.62455  0.81347  0.34547  1.0000
  H   H106      1.0  0.53619  0.72447  0.34628  1.0000
  C   C261      1.0  0.76921  0.74787  0.34624  1.0000
  C   C262      1.0  0.75289  0.71253  0.34623  1.0000
  C   C263      1.0  0.76976  0.69452  0.34614  1.0000
  C   C264      1.0  0.80437  0.71204  0.34599  1.0000
  H   H107      1.0  0.72792  0.69864  0.34622  1.0000
  H   H108      1.0  0.81691  0.69926  0.34583  1.0000
  C   C265      1.0  0.75143  0.76589  0.34622  1.0000
  C   C266      1.0  0.71627  0.80173  0.34597  1.0000
  C   C267      1.0  0.75088  0.81925  0.34606  1.0000
  C   C268      1.0  0.76775  0.80124  0.34627  1.0000
  H   H109      1.0  0.70373  0.81450  0.34588  1.0000
  H   H110      1.0  0.79272  0.81512  0.34640  1.0000
  C   C269      1.0  0.76938  0.52482  0.34633  1.0000
  C   C270      1.0  0.80473  0.54384  0.34635  1.0000
  C   C271      1.0  0.82275  0.57873  0.34620  1.0000
  C   C272      1.0  0.80522  0.59581  0.34619  1.0000
  H   H111      1.0  0.81861  0.53276  0.34639  1.0000
  H   H112      1.0  0.81799  0.62112  0.34616  1.0000
  C   C273      1.0  0.75133  0.98902  0.34631  1.0000
  C   C274      1.0  0.71548  0.91802  0.34600  1.0000
  C   C275      1.0  0.69796  0.93511  0.34607  1.0000
  C   C276      1.0  0.71597  0.96999  0.34631  1.0000
  H   H113      1.0  0.70271  0.89271  0.34596  1.0000
  H   H114      1.0  0.70209  0.98108  0.34644  1.0000
  C   C277      1.0  0.64780  0.75165  0.42842  1.0000
  C   C278      1.0  0.61714  0.75082  0.42728  1.0000
  H   H115      1.0  0.60799  0.75387  0.48712  1.0000
  N   N43       1.0  0.66451  0.75521  0.51128  1.0000
  O   O85       1.0  0.64784  0.73145  0.56351  1.0000
  O   O86       1.0  0.67121  0.78155  0.55105  1.0000
  C   C279      1.0  0.76573  0.89971  0.42847  1.0000
  C   C280      1.0  0.76655  0.86987  0.42740  1.0000
  H   H116      1.0  0.76355  0.85773  0.48731  1.0000
  N   N44       1.0  0.76223  0.91290  0.51134  1.0000
  O   O87       1.0  0.78604  0.92002  0.56343  1.0000
  O   O88       1.0  0.73593  0.89327  0.55128  1.0000
  C   C281      1.0  0.61752  0.86945  0.42837  1.0000
  C   C282      1.0  0.64732  0.90015  0.42749  1.0000
  H   H117      1.0  0.65946  0.90921  0.48743  1.0000
  N   N45       1.0  0.60431  0.85272  0.51117  1.0000
  O   O89       1.0  0.59713  0.86935  0.56330  1.0000
  O   O90       1.0  0.62393  0.84605  0.55114  1.0000
  C   C283      1.0  0.87285  0.76207  0.42839  1.0000
  C   C284      1.0  0.90353  0.76294  0.42715  1.0000
  H   H118      1.0  0.91262  0.75980  0.48699  1.0000
  N   N46       1.0  0.85615  0.75847  0.51129  1.0000
  O   O91       1.0  0.87282  0.78220  0.56359  1.0000
  O   O92       1.0  0.84947  0.73211  0.55095  1.0000
  C   C285      1.0  0.75509  0.61424  0.42856  1.0000
  C   C286      1.0  0.75423  0.64405  0.42733  1.0000
  H   H119      1.0  0.75727  0.65626  0.48716  1.0000
  N   N47       1.0  0.75868  0.60115  0.51147  1.0000
  O   O93       1.0  0.73493  0.59406  0.56373  1.0000
  O   O94       1.0  0.78502  0.62082  0.55118  1.0000
  C   C287      1.0  0.90316  0.64426  0.42861  1.0000
  C   C288      1.0  0.87332  0.61360  0.42761  1.0000
  H   H120      1.0  0.86118  0.60443  0.48749  1.0000
  N   N48       1.0  0.91638  0.66096  0.51143  1.0000
  O   O95       1.0  0.92353  0.64429  0.56348  1.0000
  O   O96       1.0  0.89677  0.66764  0.55146  1.0000
