data_image0
_chemical_formula_structural       CHNC6H2C5H2C2HNC4H4C4H4C9H4C7H4NC2HNC2HNC2HNC2HNC2HNC2HCNCHCNCHNC2NCHCNCHCHCNCHCNCHCNCHCNCHCNCHCNCHC6H5C24H15C8H5C24H15C24H15C24H15C24H15C24H15C24H15C24H15C24H15C24H15CNCHCNCHCNCHCNCHCNCHCNCHNC2HNC2HN2C2HNC2HC2HNC2HNC2HNC2HNC2HNC2HNC2H
_chemical_formula_sum              "C360 H216 N36"
_cell_length_a       75.5446
_cell_length_b       75.5446
_cell_length_c       14.9394
_cell_angle_alpha    90
_cell_angle_beta     90
_cell_angle_gamma    120

_space_group_name_H-M_alt    "P 1"
_space_group_IT_number       1

loop_
  _space_group_symop_operation_xyz
  'x, y, z'

loop_
  _atom_site_type_symbol
  _atom_site_label
  _atom_site_symmetry_multiplicity
  _atom_site_fract_x
  _atom_site_fract_y
  _atom_site_fract_z
  _atom_site_occupancy
  C   C1        1.0  0.00823  0.79514  0.26008  1.0000
  H   H1        1.0  0.01511  0.79475  0.20187  1.0000
  N   N1        1.0  0.00921  0.20049  0.25854  1.0000
  C   C2        1.0  0.02012  0.20066  0.33130  1.0000
  C   C3        1.0  0.07469  0.21783  0.39481  1.0000
  C   C4        1.0  0.05317  0.20728  0.39530  1.0000
  C   C5        1.0  0.04196  0.21144  0.33092  1.0000
  C   C6        1.0  0.05326  0.22674  0.26635  1.0000
  C   C7        1.0  0.07479  0.23757  0.26681  1.0000
  H   H2        1.0  0.04578  0.19630  0.44314  1.0000
  H   H3        1.0  0.04592  0.23045  0.21874  1.0000
  C   C8        1.0  0.07477  0.82125  0.28613  1.0000
  C   C9        1.0  0.05325  0.81040  0.28656  1.0000
  C   C10       1.0  0.04187  0.81749  0.33502  1.0000
  C   C11       1.0  0.05321  0.83596  0.38342  1.0000
  C   C12       1.0  0.07474  0.84671  0.38371  1.0000
  H   H4        1.0  0.04598  0.79697  0.25160  1.0000
  H   H5        1.0  0.04591  0.84209  0.41840  1.0000
  C   C13       1.0  0.00823  0.80613  0.41003  1.0000
  C   C14       1.0  0.01988  0.80646  0.33505  1.0000
  H   H6        1.0  0.01510  0.81342  0.46822  1.0000
  N   N2        1.0  0.00931  0.19009  0.40457  1.0000
  C   C15       1.0  0.11876  0.26587  0.33112  1.0000
  C   C16       1.0  0.10775  0.24426  0.33214  1.0000
  C   C17       1.0  0.11891  0.23382  0.33554  1.0000
  C   C18       1.0  0.08590  0.23324  0.33079  1.0000
  H   H7        1.0  0.08213  0.21442  0.44311  1.0000
  H   H8        1.0  0.08231  0.24849  0.21885  1.0000
  H   H9        1.0  0.11104  0.21819  0.33224  1.0000
  H   H10       1.0  0.11079  0.27352  0.32728  1.0000
  C   C19       1.0  0.10809  0.85071  0.33485  1.0000
  C   C20       1.0  0.11939  0.84034  0.33509  1.0000
  C   C21       1.0  0.11932  0.87238  0.33460  1.0000
  C   C22       1.0  0.08609  0.83967  0.33487  1.0000
  H   H11       1.0  0.08211  0.81558  0.24835  1.0000
  H   H12       1.0  0.08204  0.85973  0.42145  1.0000
  H   H13       1.0  0.11177  0.82471  0.33821  1.0000
  H   H14       1.0  0.11161  0.88031  0.33114  1.0000
  C   C23       1.0  0.14055  0.24432  0.33924  1.0000
  C   C24       1.0  0.15084  0.26599  0.34072  1.0000
  C   C25       1.0  0.14039  0.27717  0.33582  1.0000
  C   C26       1.0  0.15134  0.29915  0.33546  1.0000
  C   C27       1.0  0.15470  0.33204  0.38106  1.0000
  C   C28       1.0  0.14402  0.31051  0.38223  1.0000
  C   C29       1.0  0.15168  0.23346  0.34042  1.0000
  C   C30       1.0  0.15520  0.20409  0.38744  1.0000
  C   C31       1.0  0.14444  0.21486  0.38786  1.0000
  H   H15       1.0  0.14895  0.19052  0.42127  1.0000
  H   H16       1.0  0.13124  0.20897  0.42437  1.0000
  H   H17       1.0  0.13085  0.30321  0.41897  1.0000
  H   H18       1.0  0.14842  0.33938  0.41456  1.0000
  C   C32       1.0  0.14102  0.85092  0.33531  1.0000
  C   C33       1.0  0.15153  0.87252  0.33529  1.0000
  C   C34       1.0  0.14094  0.88354  0.33482  1.0000
  C   C35       1.0  0.15199  0.84008  0.33543  1.0000
  C   C36       1.0  0.14807  0.82501  0.27005  1.0000
  C   C37       1.0  0.15183  0.90538  0.33444  1.0000
  C   C38       1.0  0.14731  0.91655  0.39735  1.0000
  H   H19       1.0  0.13622  0.90907  0.44471  1.0000
  H   H20       1.0  0.15445  0.94546  0.44489  1.0000
  H   H21       1.0  0.15586  0.80376  0.22070  1.0000
  H   H22       1.0  0.13733  0.82175  0.22137  1.0000
  N   N3        1.0  0.20565  0.39748  0.25820  1.0000
  C   C39       1.0  0.19548  0.37674  0.25701  1.0000
  C   C40       1.0  0.18424  0.36528  0.33248  1.0000
  H   H23       1.0  0.19588  0.36971  0.19928  1.0000
  N   N4        1.0  0.59423  0.78667  0.25807  1.0000
  C   C41       1.0  0.61498  0.79701  0.25581  1.0000
  C   C42       1.0  0.62642  0.80627  0.33408  1.0000
  H   H24       1.0  0.62209  0.79765  0.19669  1.0000
  N   N5        1.0  0.20491  0.79526  0.25785  1.0000
  C   C43       1.0  0.19447  0.80557  0.25570  1.0000
  C   C44       1.0  0.18531  0.80780  0.33416  1.0000
  H   H25       1.0  0.19370  0.81194  0.19651  1.0000
  N   N6        1.0  0.80049  0.58872  0.25780  1.0000
  C   C45       1.0  0.81088  0.60946  0.25563  1.0000
  C   C46       1.0  0.81314  0.62088  0.33406  1.0000
  H   H26       1.0  0.81726  0.61659  0.19644  1.0000
  N   N7        1.0  0.40293  0.19934  0.25791  1.0000
  C   C47       1.0  0.38219  0.18896  0.25574  1.0000
  C   C48       1.0  0.37077  0.17975  0.33412  1.0000
  H   H27       1.0  0.37506  0.18825  0.19659  1.0000
  N   N8        1.0  0.79228  0.19113  0.25765  1.0000
  C   C49       1.0  0.80263  0.18074  0.25541  1.0000
  C   C50       1.0  0.81169  0.17836  0.33390  1.0000
  H   H28       1.0  0.80342  0.17443  0.19611  1.0000
  C   C51       1.0  0.19634  0.20041  0.26476  1.0000
  N   N9        1.0  0.20658  0.18991  0.26640  1.0000
  C   C52       1.0  0.20654  0.17890  0.33853  1.0000
  H   H29       1.0  0.19685  0.20788  0.20702  1.0000
  C   C53       1.0  0.79079  0.98314  0.25959  1.0000
  N   N10       1.0  0.80130  0.00388  0.26174  1.0000
  C   C54       1.0  0.81206  0.01475  0.33455  1.0000
  H   H30       1.0  0.78353  0.97625  0.20135  1.0000
  N   N11       1.0  0.98750  0.78493  0.26223  1.0000
  C   C55       1.0  0.97663  0.78485  0.33501  1.0000
  C   C56       1.0  0.80064  0.78533  0.26018  1.0000
  N   N12       1.0  0.79044  0.79587  0.26230  1.0000
  C   C57       1.0  0.79036  0.80665  0.33507  1.0000
  H   H31       1.0  0.80026  0.77806  0.20198  1.0000
  C   C58       1.0  0.20621  0.00273  0.25986  1.0000
  N   N13       1.0  0.19563  0.98199  0.26188  1.0000
  C   C59       1.0  0.18489  0.97112  0.33473  1.0000
  H   H32       1.0  0.21344  0.00962  0.20160  1.0000
  C   C60       1.0  0.98847  0.19037  0.25684  1.0000
  H   H33       1.0  0.98154  0.19068  0.19864  1.0000
  C   C61       1.0  0.22852  0.59887  0.26656  1.0000
  N   N14       1.0  0.22825  0.61670  0.26620  1.0000
  C   C62       1.0  0.22499  0.62491  0.34116  1.0000
  H   H34       1.0  0.23207  0.59431  0.20817  1.0000
  C   C63       1.0  0.39333  0.61731  0.26429  1.0000
  N   N15       1.0  0.37549  0.59924  0.26447  1.0000
  C   C64       1.0  0.36729  0.58790  0.33981  1.0000
  H   H35       1.0  0.39787  0.62532  0.20564  1.0000
  C   C65       1.0  0.37454  0.76369  0.26470  1.0000
  N   N16       1.0  0.39259  0.76388  0.26530  1.0000
  C   C66       1.0  0.40387  0.76704  0.34084  1.0000
  H   H36       1.0  0.36657  0.76020  0.20593  1.0000
  C   C67       1.0  0.76869  0.38752  0.26411  1.0000
  N   N17       1.0  0.76892  0.36967  0.26455  1.0000
  C   C68       1.0  0.77225  0.36161  0.33987  1.0000
  H   H37       1.0  0.76508  0.39195  0.20552  1.0000
  C   C69       1.0  0.60402  0.36883  0.26453  1.0000
  N   N18       1.0  0.62186  0.38690  0.26497  1.0000
  C   C70       1.0  0.62995  0.39827  0.34033  1.0000
  H   H38       1.0  0.59957  0.36079  0.20591  1.0000
  C   C71       1.0  0.62277  0.22268  0.26524  1.0000
  N   N19       1.0  0.60471  0.22247  0.26569  1.0000
  C   C72       1.0  0.59338  0.21926  0.34111  1.0000
  H   H39       1.0  0.63078  0.22621  0.20655  1.0000
  C   C73       1.0  0.16992  0.31039  0.28776  1.0000
  C   C74       1.0  0.18067  0.33192  0.28717  1.0000
  C   C75       1.0  0.17332  0.34331  0.33358  1.0000
  C   C76       1.0  0.17029  0.24078  0.29297  1.0000
  C   C77       1.0  0.18114  0.23011  0.29324  1.0000
  C   C78       1.0  0.17385  0.21143  0.34018  1.0000
  H   H40       1.0  0.19469  0.23640  0.25918  1.0000
  H   H41       1.0  0.17608  0.25392  0.25605  1.0000
  H   H42       1.0  0.19421  0.33918  0.25300  1.0000
  H   H43       1.0  0.17577  0.30300  0.25153  1.0000
  H   H44       1.0  0.16639  0.27385  0.34793  1.0000
  C   C79       1.0  0.74655  0.88328  0.33464  1.0000
  C   C80       1.0  0.72488  0.87197  0.33479  1.0000
  C   C81       1.0  0.71384  0.85035  0.33515  1.0000
  C   C82       1.0  0.72493  0.83984  0.33543  1.0000
  C   C83       1.0  0.74654  0.85043  0.33507  1.0000
  C   C84       1.0  0.75700  0.87206  0.33464  1.0000
  C   C85       1.0  0.69203  0.83939  0.33515  1.0000
  C   C86       1.0  0.68090  0.84324  0.26938  1.0000
  C   C87       1.0  0.65937  0.83219  0.26837  1.0000
  C   C88       1.0  0.64823  0.81724  0.33428  1.0000
  C   C89       1.0  0.65938  0.81357  0.40065  1.0000
  C   C90       1.0  0.68091  0.82429  0.40046  1.0000
  C   C91       1.0  0.75751  0.90529  0.33453  1.0000
  C   C92       1.0  0.75041  0.91658  0.28562  1.0000
  C   C93       1.0  0.76107  0.93811  0.28598  1.0000
  C   C94       1.0  0.77951  0.94950  0.33456  1.0000
  C   C95       1.0  0.78665  0.93818  0.38311  1.0000
  C   C96       1.0  0.77589  0.91666  0.38347  1.0000
  C   C97       1.0  0.75750  0.83956  0.33485  1.0000
  C   C98       1.0  0.77324  0.84414  0.39763  1.0000
  C   C99       1.0  0.78386  0.83323  0.39822  1.0000
  C   C100      1.0  0.77947  0.81759  0.33498  1.0000
  C   C101      1.0  0.76384  0.81321  0.27162  1.0000
  C   C102      1.0  0.75294  0.82382  0.27210  1.0000
  H   H45       1.0  0.75492  0.94537  0.25094  1.0000
  H   H46       1.0  0.73741  0.90923  0.24778  1.0000
  H   H47       1.0  0.80006  0.94549  0.41818  1.0000
  H   H48       1.0  0.78159  0.90936  0.42131  1.0000
  H   H49       1.0  0.77685  0.85526  0.44487  1.0000
  H   H50       1.0  0.79509  0.83710  0.44508  1.0000
  H   H51       1.0  0.74181  0.82018  0.22490  1.0000
  H   H52       1.0  0.75996  0.80195  0.22489  1.0000
  H   H53       1.0  0.68843  0.82120  0.44960  1.0000
  H   H54       1.0  0.65191  0.80273  0.44895  1.0000
  H   H55       1.0  0.65188  0.83548  0.21985  1.0000
  H   H56       1.0  0.68841  0.85392  0.22050  1.0000
  H   H57       1.0  0.71686  0.87959  0.33766  1.0000
  H   H58       1.0  0.77263  0.87976  0.33126  1.0000
  H   H59       1.0  0.71711  0.82418  0.33581  1.0000
  C   C103      1.0  0.15918  0.81459  0.26899  1.0000
  C   C104      1.0  0.17425  0.81855  0.33449  1.0000
  C   C105      1.0  0.17797  0.83345  0.40054  1.0000
  C   C106      1.0  0.16719  0.84420  0.40041  1.0000
  C   C107      1.0  0.15827  0.93807  0.39795  1.0000
  C   C108      1.0  0.17389  0.94930  0.33457  1.0000
  C   C109      1.0  0.17820  0.93803  0.27105  1.0000
  C   C110      1.0  0.16753  0.91651  0.27152  1.0000
  H   H60       1.0  0.17113  0.90900  0.22427  1.0000
  H   H61       1.0  0.18944  0.94539  0.22423  1.0000
  H   H62       1.0  0.17035  0.85489  0.44922  1.0000
  H   H63       1.0  0.18891  0.83693  0.44850  1.0000
  H   H64       1.0  0.16720  0.88037  0.33553  1.0000
  C   C111      1.0  0.85620  0.74102  0.33503  1.0000
  C   C112      1.0  0.84583  0.71935  0.33513  1.0000
  C   C113      1.0  0.85641  0.70831  0.33537  1.0000
  C   C114      1.0  0.87802  0.71940  0.33553  1.0000
  C   C115      1.0  0.88904  0.74101  0.33520  1.0000
  C   C116      1.0  0.87787  0.75147  0.33493  1.0000
  C   C117      1.0  0.84556  0.68649  0.33535  1.0000
  C   C118      1.0  0.83051  0.67536  0.26986  1.0000
  C   C119      1.0  0.82006  0.65384  0.26877  1.0000
  C   C120      1.0  0.82395  0.64270  0.33436  1.0000
  C   C121      1.0  0.83884  0.65385  0.40048  1.0000
  C   C122      1.0  0.84963  0.67537  0.40037  1.0000
  C   C123      1.0  0.84515  0.75198  0.33504  1.0000
  C   C124      1.0  0.82675  0.74489  0.28621  1.0000
  C   C125      1.0  0.81590  0.75557  0.28665  1.0000
  C   C126      1.0  0.82298  0.77402  0.33517  1.0000
  C   C127      1.0  0.84144  0.78115  0.38367  1.0000
  C   C128      1.0  0.85218  0.77037  0.38396  1.0000
  C   C129      1.0  0.91087  0.75197  0.33494  1.0000
  C   C130      1.0  0.92202  0.76769  0.39777  1.0000
  C   C131      1.0  0.94355  0.77833  0.39829  1.0000
  C   C132      1.0  0.95481  0.77395  0.33497  1.0000
  C   C133      1.0  0.94356  0.75833  0.27161  1.0000
  C   C134      1.0  0.92203  0.74742  0.27211  1.0000
  H   H65       1.0  0.80249  0.74943  0.25163  1.0000
  H   H66       1.0  0.82108  0.73189  0.24841  1.0000
  H   H67       1.0  0.84756  0.79456  0.41867  1.0000
  H   H68       1.0  0.86519  0.77607  0.42175  1.0000
  H   H69       1.0  0.91453  0.77131  0.44502  1.0000
  H   H70       1.0  0.95092  0.78955  0.44514  1.0000
  H   H71       1.0  0.91455  0.73630  0.22488  1.0000
  H   H72       1.0  0.95093  0.75446  0.22479  1.0000
  H   H73       1.0  0.86030  0.68289  0.44927  1.0000
  H   H74       1.0  0.84228  0.64637  0.44852  1.0000
  H   H75       1.0  0.80923  0.64635  0.22044  1.0000
  H   H76       1.0  0.82729  0.68287  0.22116  1.0000
  H   H77       1.0  0.83020  0.71133  0.33814  1.0000
  H   H78       1.0  0.88580  0.76711  0.33154  1.0000
  H   H79       1.0  0.88587  0.71159  0.33580  1.0000
  C   C135      1.0  0.25066  0.10257  0.33529  1.0000
  C   C136      1.0  0.27233  0.11389  0.33511  1.0000
  C   C137      1.0  0.28335  0.13552  0.33568  1.0000
  C   C138      1.0  0.27224  0.14601  0.33641  1.0000
  C   C139      1.0  0.25062  0.13539  0.33631  1.0000
  C   C140      1.0  0.24019  0.11377  0.33566  1.0000
  C   C141      1.0  0.30517  0.14651  0.33556  1.0000
  C   C142      1.0  0.31630  0.14265  0.26983  1.0000
  C   C143      1.0  0.33782  0.15374  0.26870  1.0000
  C   C144      1.0  0.34896  0.16873  0.33444  1.0000
  C   C145      1.0  0.33781  0.17240  0.40080  1.0000
  C   C146      1.0  0.31628  0.16165  0.40075  1.0000
  C   C147      1.0  0.23971  0.08057  0.33523  1.0000
  C   C148      1.0  0.24675  0.06926  0.28607  1.0000
  C   C149      1.0  0.23606  0.04773  0.28640  1.0000
  C   C150      1.0  0.21764  0.03635  0.33515  1.0000
  C   C151      1.0  0.21056  0.04769  0.38398  1.0000
  C   C152      1.0  0.22136  0.06921  0.38441  1.0000
  C   C153      1.0  0.23962  0.14623  0.33672  1.0000
  C   C154      1.0  0.22387  0.14150  0.39960  1.0000
  C   C155      1.0  0.21317  0.15232  0.40069  1.0000
  C   C156      1.0  0.21751  0.16804  0.33793  1.0000
  C   C157      1.0  0.23317  0.17258  0.27452  1.0000
  C   C158      1.0  0.24414  0.16203  0.27445  1.0000
  H   H80       1.0  0.24217  0.04046  0.25112  1.0000
  H   H81       1.0  0.25973  0.07660  0.24810  1.0000
  H   H82       1.0  0.19718  0.04040  0.41919  1.0000
  H   H83       1.0  0.21570  0.07651  0.42247  1.0000
  H   H84       1.0  0.22028  0.13032  0.44648  1.0000
  H   H85       1.0  0.20193  0.14835  0.44756  1.0000
  H   H86       1.0  0.25528  0.16578  0.22719  1.0000
  H   H87       1.0  0.23701  0.18389  0.22810  1.0000
  H   H88       1.0  0.30877  0.16474  0.44986  1.0000
  H   H89       1.0  0.34528  0.18327  0.44898  1.0000
  H   H90       1.0  0.34531  0.15046  0.22016  1.0000
  H   H91       1.0  0.30879  0.13196  0.22100  1.0000
  H   H92       1.0  0.28036  0.10629  0.33783  1.0000
  H   H93       1.0  0.22455  0.10605  0.33243  1.0000
  H   H94       1.0  0.28003  0.16167  0.33696  1.0000
  C   C159      1.0  0.88867  0.13517  0.33388  1.0000
  C   C160      1.0  0.87738  0.14555  0.33410  1.0000
  C   C161      1.0  0.85576  0.13500  0.33469  1.0000
  C   C162      1.0  0.84523  0.11339  0.33497  1.0000
  C   C163      1.0  0.85580  0.10235  0.33453  1.0000
  C   C164      1.0  0.87743  0.11349  0.33398  1.0000
  C   C165      1.0  0.84481  0.14587  0.33481  1.0000
  C   C166      1.0  0.84881  0.16101  0.26965  1.0000
  C   C167      1.0  0.83777  0.17150  0.26874  1.0000
  C   C168      1.0  0.82267  0.16753  0.33410  1.0000
  C   C169      1.0  0.81886  0.15256  0.39991  1.0000
  C   C170      1.0  0.82957  0.14174  0.39963  1.0000
  C   C171      1.0  0.91067  0.14618  0.33351  1.0000
  C   C172      1.0  0.92196  0.16453  0.28424  1.0000
  C   C173      1.0  0.94349  0.17533  0.28420  1.0000
  C   C174      1.0  0.95488  0.16827  0.33271  1.0000
  C   C175      1.0  0.94357  0.14987  0.38166  1.0000
  C   C176      1.0  0.92204  0.13917  0.38243  1.0000
  C   C177      1.0  0.84491  0.08051  0.33439  1.0000
  C   C178      1.0  0.84949  0.06937  0.39722  1.0000
  C   C179      1.0  0.83860  0.04784  0.39780  1.0000
  C   C180      1.0  0.82296  0.03658  0.33450  1.0000
  C   C181      1.0  0.81857  0.04782  0.27115  1.0000
  C   C182      1.0  0.82919  0.06934  0.27161  1.0000
  H   H95       1.0  0.95075  0.18870  0.24883  1.0000
  H   H96       1.0  0.91461  0.17017  0.24644  1.0000
  H   H97       1.0  0.95088  0.14377  0.41671  1.0000
  H   H98       1.0  0.91475  0.12621  0.42049  1.0000
  H   H99       1.0  0.86061  0.07687  0.44443  1.0000
  H   H100      1.0  0.84247  0.04048  0.44463  1.0000
  H   H101      1.0  0.82555  0.07682  0.22438  1.0000
  H   H102      1.0  0.80734  0.04043  0.22435  1.0000
  H   H103      1.0  0.82637  0.13102  0.44833  1.0000
  H   H104      1.0  0.80790  0.14907  0.44776  1.0000
  H   H105      1.0  0.84116  0.18238  0.22062  1.0000
  H   H106      1.0  0.85958  0.16429  0.22111  1.0000
  H   H107      1.0  0.88502  0.16119  0.33704  1.0000
  H   H108      1.0  0.88511  0.10555  0.33050  1.0000
  H   H109      1.0  0.82957  0.10555  0.33541  1.0000
  C   C183      1.0  0.25184  0.52930  0.34492  1.0000
  C   C184      1.0  0.24058  0.50775  0.33814  1.0000
  C   C185      1.0  0.25052  0.49608  0.33126  1.0000
  C   C186      1.0  0.27219  0.50652  0.32949  1.0000
  C   C187      1.0  0.28370  0.52801  0.33593  1.0000
  C   C188      1.0  0.27339  0.53917  0.34337  1.0000
  C   C189      1.0  0.23903  0.47426  0.32943  1.0000
  C   C190      1.0  0.22366  0.46322  0.39382  1.0000
  C   C191      1.0  0.21283  0.44170  0.39427  1.0000
  C   C192      1.0  0.21669  0.43033  0.32958  1.0000
  C   C193      1.0  0.23191  0.44146  0.26450  1.0000
  C   C194      1.0  0.24301  0.46298  0.26493  1.0000
  C   C195      1.0  0.24231  0.54138  0.35285  1.0000
  C   C196      1.0  0.22944  0.54154  0.28458  1.0000
  C   C197      1.0  0.22334  0.55638  0.28440  1.0000
  C   C198      1.0  0.22968  0.57134  0.35276  1.0000
  C   C199      1.0  0.24178  0.57044  0.42306  1.0000
  C   C200      1.0  0.24800  0.55576  0.42307  1.0000
  C   C201      1.0  0.30532  0.53893  0.33744  1.0000
  C   C202      1.0  0.31557  0.54707  0.41915  1.0000
  C   C203      1.0  0.33633  0.56229  0.41991  1.0000
  C   C204      1.0  0.34738  0.57021  0.33914  1.0000
  C   C205      1.0  0.33710  0.56133  0.25771  1.0000
  C   C206      1.0  0.31635  0.54599  0.25670  1.0000
  H   H110      1.0  0.21469  0.55654  0.23200  1.0000
  H   H111      1.0  0.22556  0.53176  0.23135  1.0000
  H   H112      1.0  0.24741  0.58133  0.47222  1.0000
  H   H113      1.0  0.25764  0.55633  0.47269  1.0000
  H   H114      1.0  0.30767  0.54299  0.47835  1.0000
  H   H115      1.0  0.34278  0.56856  0.48037  1.0000
  H   H116      1.0  0.30904  0.54105  0.19643  1.0000
  H   H117      1.0  0.34428  0.56673  0.19756  1.0000
  H   H118      1.0  0.25392  0.47038  0.21680  1.0000
  H   H119      1.0  0.23543  0.43400  0.21671  1.0000
  H   H120      1.0  0.20194  0.43444  0.44257  1.0000
  H   H121      1.0  0.22054  0.47078  0.44265  1.0000
  H   H122      1.0  0.22494  0.50049  0.33929  1.0000
  H   H123      1.0  0.28177  0.55482  0.34707  1.0000
  H   H124      1.0  0.27973  0.49842  0.32657  1.0000
  C   C207      1.0  0.46280  0.71047  0.34157  1.0000
  C   C208      1.0  0.48436  0.72085  0.33532  1.0000
  C   C209      1.0  0.49595  0.74251  0.33334  1.0000
  C   C210      1.0  0.48550  0.75373  0.33483  1.0000
  C   C211      1.0  0.46398  0.74362  0.33820  1.0000
  C   C212      1.0  0.45287  0.72210  0.34182  1.0000
  C   C213      1.0  0.51773  0.75291  0.33327  1.0000
  C   C214      1.0  0.52865  0.74888  0.26725  1.0000
  C   C215      1.0  0.55019  0.75950  0.26682  1.0000
  C   C216      1.0  0.56159  0.77414  0.33363  1.0000
  C   C217      1.0  0.55053  0.77786  0.40041  1.0000
  C   C218      1.0  0.52902  0.76762  0.39969  1.0000
  C   C219      1.0  0.45075  0.68884  0.34923  1.0000
  C   C220      1.0  0.45056  0.67581  0.28095  1.0000
  C   C221      1.0  0.43577  0.65483  0.28111  1.0000
  C   C222      1.0  0.42088  0.64620  0.34978  1.0000
  C   C223      1.0  0.42184  0.65922  0.42010  1.0000
  C   C224      1.0  0.43648  0.68013  0.41983  1.0000
  C   C225      1.0  0.45298  0.75424  0.33949  1.0000
  C   C226      1.0  0.44488  0.75646  0.42105  1.0000
  C   C227      1.0  0.42961  0.76194  0.42149  1.0000
  C   C228      1.0  0.42158  0.76484  0.34052  1.0000
  C   C229      1.0  0.43041  0.76329  0.25921  1.0000
  C   C230      1.0  0.44580  0.75798  0.25854  1.0000
  H   H125      1.0  0.43558  0.64602  0.22868  1.0000
  H   H126      1.0  0.46029  0.68171  0.22755  1.0000
  H   H127      1.0  0.41101  0.65397  0.46954  1.0000
  H   H128      1.0  0.43594  0.68918  0.46962  1.0000
  H   H129      1.0  0.44906  0.75281  0.48044  1.0000
  H   H130      1.0  0.42337  0.76223  0.48187  1.0000
  H   H131      1.0  0.45069  0.75548  0.19839  1.0000
  H   H132      1.0  0.42493  0.76490  0.19893  1.0000
  H   H133      1.0  0.52165  0.77080  0.44919  1.0000
  H   H134      1.0  0.55803  0.78842  0.44970  1.0000
  H   H135      1.0  0.55746  0.75615  0.21754  1.0000
  H   H136      1.0  0.52099  0.73844  0.21771  1.0000
  H   H137      1.0  0.49173  0.71257  0.33676  1.0000
  H   H138      1.0  0.43720  0.71477  0.34448  1.0000
  H   H139      1.0  0.49359  0.76938  0.33285  1.0000
  C   C231      1.0  0.28143  0.74031  0.33998  1.0000
  C   C232      1.0  0.27107  0.75152  0.33416  1.0000
  C   C233      1.0  0.24941  0.74146  0.33229  1.0000
  C   C234      1.0  0.23818  0.71980  0.33345  1.0000
  C   C235      1.0  0.24827  0.70837  0.33620  1.0000
  C   C236      1.0  0.26979  0.71875  0.33975  1.0000
  C   C237      1.0  0.23901  0.75284  0.33261  1.0000
  C   C238      1.0  0.24294  0.76774  0.26648  1.0000
  C   C239      1.0  0.23227  0.77861  0.26626  1.0000
  C   C240      1.0  0.21769  0.77536  0.33337  1.0000
  C   C241      1.0  0.21409  0.76064  0.40027  1.0000
  C   C242      1.0  0.22438  0.74943  0.39937  1.0000
  C   C243      1.0  0.30304  0.74986  0.34805  1.0000
  C   C244      1.0  0.31616  0.76267  0.27989  1.0000
  C   C245      1.0  0.33711  0.76878  0.28043  1.0000
  C   C246      1.0  0.34565  0.76250  0.34947  1.0000
  C   C247      1.0  0.33255  0.75049  0.41969  1.0000
  C   C248      1.0  0.31165  0.74428  0.41899  1.0000
  C   C249      1.0  0.23764  0.68676  0.33748  1.0000
  C   C250      1.0  0.23498  0.67644  0.41940  1.0000
  C   C251      1.0  0.22955  0.65570  0.42046  1.0000
  C   C252      1.0  0.22710  0.64478  0.33986  1.0000
  C   C253      1.0  0.22908  0.65516  0.25811  1.0000
  C   C254      1.0  0.23435  0.67586  0.25677  1.0000
  H   H140      1.0  0.34598  0.77735  0.22805  1.0000
  H   H141      1.0  0.31031  0.76647  0.22615  1.0000
  H   H142      1.0  0.33773  0.74491  0.46938  1.0000
  H   H143      1.0  0.30254  0.73472  0.46869  1.0000
  H   H144      1.0  0.23827  0.68425  0.47875  1.0000
  H   H145      1.0  0.22889  0.64916  0.48124  1.0000
  H   H146      1.0  0.23722  0.68325  0.19649  1.0000
  H   H147      1.0  0.22783  0.64810  0.19809  1.0000
  H   H148      1.0  0.22129  0.73891  0.44893  1.0000
  H   H149      1.0  0.20359  0.75760  0.44981  1.0000
  H   H150      1.0  0.23553  0.78919  0.21685  1.0000
  H   H151      1.0  0.25332  0.77050  0.21667  1.0000
  H   H152      1.0  0.27936  0.76717  0.33593  1.0000
  H   H153      1.0  0.27711  0.71040  0.34225  1.0000
  H   H154      1.0  0.22252  0.71225  0.33165  1.0000
  C   C255      1.0  0.74541  0.45727  0.34071  1.0000
  C   C256      1.0  0.75660  0.47883  0.33456  1.0000
  C   C257      1.0  0.74652  0.49042  0.33274  1.0000
  C   C258      1.0  0.72486  0.47997  0.33426  1.0000
  C   C259      1.0  0.71345  0.45844  0.33745  1.0000
  C   C260      1.0  0.72385  0.44733  0.34098  1.0000
  C   C261      1.0  0.75789  0.51219  0.33280  1.0000
  C   C262      1.0  0.77279  0.52314  0.26658  1.0000
  C   C263      1.0  0.78369  0.54467  0.26625  1.0000
  C   C264      1.0  0.78050  0.55605  0.33335  1.0000
  C   C265      1.0  0.76578  0.54497  0.40032  1.0000
  C   C266      1.0  0.75453  0.52346  0.39951  1.0000
  C   C267      1.0  0.75499  0.44522  0.34841  1.0000
  C   C268      1.0  0.76767  0.44487  0.27977  1.0000
  C   C269      1.0  0.77378  0.43002  0.28000  1.0000
  C   C270      1.0  0.76763  0.41525  0.34917  1.0000
  C   C271      1.0  0.75576  0.41640  0.41988  1.0000
  C   C272      1.0  0.74953  0.43107  0.41948  1.0000
  C   C273      1.0  0.69184  0.44745  0.33878  1.0000
  C   C274      1.0  0.68146  0.43947  0.42036  1.0000
  C   C275      1.0  0.66074  0.42414  0.42081  1.0000
  C   C276      1.0  0.64984  0.41600  0.33987  1.0000
  C   C277      1.0  0.66024  0.42472  0.25850  1.0000
  C   C278      1.0  0.68095  0.44012  0.25781  1.0000
  H   H155      1.0  0.78225  0.42969  0.22725  1.0000
  H   H156      1.0  0.77136  0.45447  0.22593  1.0000
  H   H157      1.0  0.75026  0.40566  0.46966  1.0000
  H   H158      1.0  0.74006  0.43065  0.46951  1.0000
  H   H159      1.0  0.68926  0.44373  0.47979  1.0000
  H   H160      1.0  0.65417  0.41802  0.48128  1.0000
  H   H161      1.0  0.68836  0.44489  0.19766  1.0000
  H   H162      1.0  0.65320  0.41913  0.19824  1.0000
  H   H163      1.0  0.74403  0.51606  0.44917  1.0000
  H   H164      1.0  0.76277  0.55244  0.44986  1.0000
  H   H165      1.0  0.79427  0.55197  0.21683  1.0000
  H   H166      1.0  0.77553  0.51549  0.21683  1.0000
  H   H167      1.0  0.77224  0.48620  0.33599  1.0000
  H   H168      1.0  0.71552  0.43166  0.34365  1.0000
  H   H169      1.0  0.71730  0.48806  0.33242  1.0000
  C   C279      1.0  0.53437  0.27575  0.34094  1.0000
  C   C280      1.0  0.51281  0.26536  0.33462  1.0000
  C   C281      1.0  0.50124  0.24370  0.33286  1.0000
  C   C282      1.0  0.51170  0.23250  0.33448  1.0000
  C   C283      1.0  0.53323  0.24263  0.33781  1.0000
  C   C284      1.0  0.54432  0.26414  0.34135  1.0000
  C   C285      1.0  0.47946  0.23328  0.33289  1.0000
  C   C286      1.0  0.46851  0.23724  0.26673  1.0000
  C   C287      1.0  0.44698  0.22658  0.26636  1.0000
  C   C288      1.0  0.43561  0.21200  0.33341  1.0000
  C   C289      1.0  0.44670  0.20837  0.40036  1.0000
  C   C290      1.0  0.46820  0.21864  0.39958  1.0000
  C   C291      1.0  0.54641  0.29738  0.34868  1.0000
  C   C292      1.0  0.54671  0.31041  0.28013  1.0000
  C   C293      1.0  0.56155  0.33137  0.28040  1.0000
  C   C294      1.0  0.57631  0.34000  0.34960  1.0000
  C   C295      1.0  0.57520  0.32697  0.42020  1.0000
  C   C296      1.0  0.56053  0.30607  0.41980  1.0000
  C   C297      1.0  0.54423  0.23202  0.33936  1.0000
  C   C298      1.0  0.55229  0.22976  0.42095  1.0000
  C   C299      1.0  0.56756  0.22427  0.42154  1.0000
  C   C300      1.0  0.57566  0.22145  0.34063  1.0000
  C   C301      1.0  0.56690  0.22305  0.25924  1.0000
  C   C302      1.0  0.55151  0.22837  0.25846  1.0000
  H   H170      1.0  0.56185  0.34019  0.22777  1.0000
  H   H171      1.0  0.53711  0.30451  0.22630  1.0000
  H   H172      1.0  0.58595  0.33222  0.46995  1.0000
  H   H173      1.0  0.56100  0.29702  0.46971  1.0000
  H   H174      1.0  0.54803  0.23332  0.48033  1.0000
  H   H175      1.0  0.57374  0.22393  0.48199  1.0000
  H   H176      1.0  0.54666  0.23089  0.19825  1.0000
  H   H177      1.0  0.57243  0.22150  0.19900  1.0000
  H   H178      1.0  0.47560  0.21552  0.44917  1.0000
  H   H179      1.0  0.43922  0.19786  0.44984  1.0000
  H   H180      1.0  0.43968  0.22987  0.21696  1.0000
  H   H181      1.0  0.47615  0.24762  0.21697  1.0000
  H   H182      1.0  0.50544  0.27364  0.33608  1.0000
  H   H183      1.0  0.55999  0.27149  0.34410  1.0000
  H   H184      1.0  0.50362  0.21684  0.33268  1.0000
  C   C303      1.0  0.71587  0.24615  0.34116  1.0000
  C   C304      1.0  0.72626  0.23497  0.33493  1.0000
  C   C305      1.0  0.74792  0.24505  0.33295  1.0000
  C   C306      1.0  0.75913  0.26671  0.33428  1.0000
  C   C307      1.0  0.74900  0.27812  0.33744  1.0000
  C   C308      1.0  0.72749  0.26771  0.34118  1.0000
  C   C309      1.0  0.75832  0.23368  0.33294  1.0000
  C   C310      1.0  0.75437  0.21880  0.26667  1.0000
  C   C311      1.0  0.76500  0.20789  0.26626  1.0000
  C   C312      1.0  0.77955  0.21105  0.33340  1.0000
  C   C313      1.0  0.78318  0.22575  0.40044  1.0000
  C   C314      1.0  0.77294  0.23702  0.39969  1.0000
  C   C315      1.0  0.69425  0.23656  0.34905  1.0000
  C   C316      1.0  0.68118  0.22380  0.28068  1.0000
  C   C317      1.0  0.66022  0.21765  0.28114  1.0000
  C   C318      1.0  0.65163  0.22385  0.35023  1.0000
  C   C319      1.0  0.66469  0.23581  0.42066  1.0000
  C   C320      1.0  0.68559  0.24207  0.42005  1.0000
  C   C321      1.0  0.75960  0.29973  0.33855  1.0000
  C   C322      1.0  0.76206  0.31014  0.42006  1.0000
  C   C323      1.0  0.76747  0.33087  0.42042  1.0000
  C   C324      1.0  0.77009  0.34172  0.33944  1.0000
  C   C325      1.0  0.76829  0.33126  0.25810  1.0000
  C   C326      1.0  0.76303  0.31057  0.25750  1.0000
  H   H185      1.0  0.65137  0.20908  0.22869  1.0000
  H   H186      1.0  0.68705  0.22000  0.22704  1.0000
  H   H187      1.0  0.65948  0.24141  0.47022  1.0000
  H   H188      1.0  0.69468  0.25164  0.46978  1.0000
  H   H189      1.0  0.75867  0.30239  0.47959  1.0000
  H   H190      1.0  0.76801  0.33748  0.48091  1.0000
  H   H191      1.0  0.76034  0.30313  0.19740  1.0000
  H   H192      1.0  0.76969  0.33827  0.19781  1.0000
  H   H193      1.0  0.77605  0.24752  0.44936  1.0000
  H   H194      1.0  0.79366  0.22874  0.45000  1.0000
  H   H195      1.0  0.76171  0.19732  0.21679  1.0000
  H   H196      1.0  0.74400  0.21608  0.21687  1.0000
  H   H197      1.0  0.71798  0.21932  0.33659  1.0000
  H   H198      1.0  0.72015  0.27603  0.34382  1.0000
  H   H199      1.0  0.77478  0.27428  0.33232  1.0000
  C   C327      1.0  0.18454  0.37707  0.40681  1.0000
  N   N20       1.0  0.19504  0.39780  0.40364  1.0000
  C   C328      1.0  0.20575  0.40850  0.33040  1.0000
  H   H200      1.0  0.17730  0.37031  0.46524  1.0000
  C   C329      1.0  0.61494  0.80407  0.41219  1.0000
  N   N21       1.0  0.59421  0.79378  0.40953  1.0000
  C   C330      1.0  0.58340  0.78484  0.33373  1.0000
  H   H201      1.0  0.62201  0.81055  0.47137  1.0000
  C   C331      1.0  0.18769  0.79867  0.41236  1.0000
  N   N22       1.0  0.19807  0.78832  0.40959  1.0000
  C   C332      1.0  0.20692  0.78640  0.33360  1.0000
  H   H202      1.0  0.18129  0.79930  0.47169  1.0000
  C   C333      1.0  0.80397  0.60939  0.41225  1.0000
  N   N23       1.0  0.79355  0.58865  0.40951  1.0000
  C   C334      1.0  0.79160  0.57786  0.33355  1.0000
  H   H203      1.0  0.80462  0.61643  0.47156  1.0000
  C   C335      1.0  0.38227  0.18204  0.41225  1.0000
  N   N24       1.0  0.40301  0.19237  0.40950  1.0000
  C   C336      1.0  0.41380  0.20127  0.33360  1.0000
  H   H204      1.0  0.37523  0.17560  0.47152  1.0000
  C   C337      1.0  0.80928  0.18744  0.41225  1.0000
  N   N25       1.0  0.79899  0.19787  0.40957  1.0000
  C   C338      1.0  0.79024  0.19994  0.33354  1.0000
  H   H205      1.0  0.81561  0.18671  0.47162  1.0000
  N   N26       1.0  0.19558  0.17869  0.41120  1.0000
  C   C339      1.0  0.18502  0.18887  0.41390  1.0000
  C   C340      1.0  0.18485  0.20045  0.33964  1.0000
  H   H206      1.0  0.17759  0.18824  0.47194  1.0000
  N   N27       1.0  0.81197  0.00390  0.40740  1.0000
  C   C341      1.0  0.80176  0.98316  0.40959  1.0000
  C   C342      1.0  0.79047  0.97150  0.33458  1.0000
  H   H207      1.0  0.80216  0.97629  0.46781  1.0000
  N   N28       1.0  0.98749  0.79562  0.40783  1.0000
  N   N29       1.0  0.80112  0.80656  0.40791  1.0000
  C   C343      1.0  0.81163  0.79633  0.41014  1.0000
  C   C344      1.0  0.81196  0.78500  0.33517  1.0000
  H   H208      1.0  0.81890  0.79673  0.46835  1.0000
  N   N30       1.0  0.18508  0.98197  0.40778  1.0000
  C   C345      1.0  0.19537  0.00271  0.41012  1.0000
  C   C346      1.0  0.20664  0.01436  0.33507  1.0000
  H   H209      1.0  0.19504  0.00958  0.46847  1.0000
  C   C347      1.0  0.98858  0.17967  0.40724  1.0000
  C   C348      1.0  0.97688  0.17924  0.33227  1.0000
  H   H210      1.0  0.98174  0.17253  0.46573  1.0000
  N   N31       1.0  0.22200  0.61447  0.41911  1.0000
  C   C349      1.0  0.22214  0.59662  0.42433  1.0000
  C   C350      1.0  0.22603  0.58815  0.34750  1.0000
  H   H211      1.0  0.22009  0.58990  0.48571  1.0000
  N   N32       1.0  0.37779  0.59549  0.41754  1.0000
  C   C351      1.0  0.39565  0.61346  0.42221  1.0000
  C   C352      1.0  0.40410  0.62569  0.34500  1.0000
  H   H212      1.0  0.40240  0.61823  0.48349  1.0000
  N   N33       1.0  0.39626  0.77001  0.41834  1.0000
  C   C353      1.0  0.37831  0.76995  0.42257  1.0000
  C   C354      1.0  0.36613  0.76616  0.34515  1.0000
  H   H213      1.0  0.37350  0.77198  0.48369  1.0000
  N   N34       1.0  0.77534  0.37224  0.41735  1.0000
  C   C355      1.0  0.77524  0.39011  0.42176  1.0000
  C   C356      1.0  0.77127  0.39842  0.34458  1.0000
  H   H214      1.0  0.77737  0.39697  0.48285  1.0000
  N   N35       1.0  0.61934  0.39072  0.41783  1.0000
  C   C357      1.0  0.60146  0.37274  0.42224  1.0000
  C   C358      1.0  0.59314  0.36048  0.34503  1.0000
  H   H215      1.0  0.59461  0.36800  0.48335  1.0000
  N   N36       1.0  0.60096  0.21627  0.41866  1.0000
  C   C359      1.0  0.61893  0.21635  0.42306  1.0000
  C   C360      1.0  0.63115  0.22020  0.34576  1.0000
  H   H216      1.0  0.62370  0.21430  0.48420  1.0000
