data_image0
_chemical_formula_structural       N8C4HCH3C4HCH3N4C4HCH3C4HCH3N8C4HCH3C4HCH3C4HCH3C4HCH3CNCNCNCNCNCNCNCNCNCNCNCNCNCNCNCNCNCNCNCNCNCNCNCNCNCNCNCNCNCNCNCNCNCNCNCNC4HCH3C4HCH3C4HCH3C4HCH3N4C4HCH3C4HCH3N4C4HCH3C4HCH3C4HCH3C4HCH3N16C4HCH3C4HCH3N4C4HCH3C4HCH3N8C4HCH3C4HCH3C4HCH3C4HCH3CNCNCNCNCNCNCNCNCNCNCNCNCNCNCNCNCNCNCNCNCNCNCNCNCNCNCNCNCNCNCNCNCNCNCNCNC4HCH3C4HCH3C4HCH3C4HCH3N4C4HCH3C4HCH3N4C4HCH3C4HCH3C4HCH3C4HCH3N8
_chemical_formula_sum              "N144 C252 H144"
_cell_length_a       42.0864
_cell_length_b       54.5636
_cell_length_c       14.862
_cell_angle_alpha    90
_cell_angle_beta     90
_cell_angle_gamma    90

_space_group_name_H-M_alt    "P 1"
_space_group_IT_number       1

loop_
  _space_group_symop_operation_xyz
  'x, y, z'

loop_
  _atom_site_type_symbol
  _atom_site_label
  _atom_site_symmetry_multiplicity
  _atom_site_fract_x
  _atom_site_fract_y
  _atom_site_fract_z
  _atom_site_occupancy
  N   N1        1.0  0.24283  0.15511  0.36078  1.0000
  N   N2        1.0  0.27426  0.15437  0.35916  1.0000
  N   N3        1.0  0.26904  0.85422  0.35811  1.0000
  N   N4        1.0  0.23761  0.85502  0.35792  1.0000
  N   N5        1.0  0.48683  0.65161  0.36871  1.0000
  N   N6        1.0  0.01820  0.65146  0.36354  1.0000
  N   N7        1.0  0.02360  0.35747  0.36953  1.0000
  N   N8        1.0  0.49224  0.35794  0.36408  1.0000
  C   C1        1.0  0.06721  0.10832  0.31081  1.0000
  C   C2        1.0  0.06328  0.13182  0.27179  1.0000
  C   C3        1.0  0.08814  0.14901  0.26731  1.0000
  C   C4        1.0  0.11753  0.14308  0.30989  1.0000
  H   H1        1.0  0.04206  0.13636  0.24240  1.0000
  C   C5        1.0  0.08260  0.17127  0.21087  1.0000
  H   H2        1.0  0.06593  0.16766  0.15613  1.0000
  H   H3        1.0  0.10458  0.17749  0.17942  1.0000
  H   H4        1.0  0.07280  0.18598  0.25211  1.0000
  C   C6        1.0  0.44529  0.89995  0.30887  1.0000
  C   C7        1.0  0.44971  0.87629  0.27194  1.0000
  C   C8        1.0  0.42471  0.85926  0.26539  1.0000
  C   C9        1.0  0.39486  0.86541  0.30508  1.0000
  H   H5        1.0  0.47134  0.87159  0.24538  1.0000
  C   C10       1.0  0.43074  0.83686  0.21015  1.0000
  H   H6        1.0  0.44790  0.84036  0.15656  1.0000
  H   H7        1.0  0.40906  0.83058  0.17724  1.0000
  H   H8        1.0  0.44015  0.82225  0.25254  1.0000
  N   N9        1.0  0.40299  0.12352  0.35098  1.0000
  N   N10       1.0  0.42597  0.10707  0.34672  1.0000
  N   N11       1.0  0.10918  0.88651  0.35649  1.0000
  N   N12       1.0  0.08625  0.90304  0.35250  1.0000
  C   C11       1.0  0.31057  0.61028  0.31204  1.0000
  C   C12       1.0  0.30530  0.63484  0.28480  1.0000
  C   C13       1.0  0.32934  0.65283  0.28622  1.0000
  C   C14       1.0  0.36003  0.64592  0.31880  1.0000
  H   H9        1.0  0.28326  0.63988  0.26234  1.0000
  C   C15       1.0  0.32069  0.67765  0.25143  1.0000
  H   H10       1.0  0.29781  0.67804  0.21673  1.0000
  H   H11       1.0  0.33847  0.68384  0.20304  1.0000
  H   H12       1.0  0.31913  0.69066  0.30698  1.0000
  C   C16       1.0  0.19913  0.39888  0.31429  1.0000
  C   C17       1.0  0.20449  0.37440  0.28620  1.0000
  C   C18       1.0  0.18058  0.35631  0.28766  1.0000
  C   C19       1.0  0.14994  0.36303  0.32097  1.0000
  H   H13       1.0  0.22648  0.36948  0.26303  1.0000
  C   C20       1.0  0.18924  0.33159  0.25190  1.0000
  H   H14       1.0  0.21198  0.33136  0.21652  1.0000
  H   H15       1.0  0.17131  0.32544  0.20388  1.0000
  H   H16       1.0  0.19107  0.31846  0.30703  1.0000
  N   N13       1.0  0.14592  0.62040  0.34547  1.0000
  N   N14       1.0  0.16929  0.60419  0.34191  1.0000
  N   N15       1.0  0.36400  0.38930  0.34397  1.0000
  N   N16       1.0  0.34052  0.40542  0.34033  1.0000
  N   N17       1.0  0.15560  0.24699  0.33405  1.0000
  N   N18       1.0  0.14749  0.27021  0.33531  1.0000
  N   N19       1.0  0.35556  0.76195  0.32860  1.0000
  N   N20       1.0  0.36341  0.73869  0.33062  1.0000
  C   C21       1.0  0.39270  0.28100  0.33870  1.0000
  C   C22       1.0  0.36440  0.27407  0.29446  1.0000
  C   C23       1.0  0.35399  0.24945  0.29445  1.0000
  C   C24       1.0  0.37333  0.23184  0.33903  1.0000
  H   H17       1.0  0.35137  0.28701  0.26125  1.0000
  C   C25       1.0  0.32423  0.24298  0.24572  1.0000
  H   H18       1.0  0.31458  0.25834  0.20734  1.0000
  H   H19       1.0  0.30605  0.23724  0.29357  1.0000
  H   H20       1.0  0.32883  0.22808  0.19847  1.0000
  C   C26       1.0  0.11779  0.72880  0.34188  1.0000
  C   C27       1.0  0.14605  0.73562  0.29721  1.0000
  C   C28       1.0  0.15676  0.76017  0.29740  1.0000
  C   C29       1.0  0.13778  0.77788  0.34272  1.0000
  H   H21       1.0  0.15886  0.72263  0.26351  1.0000
  C   C30       1.0  0.18644  0.76647  0.24798  1.0000
  H   H22       1.0  0.19577  0.75108  0.20912  1.0000
  H   H23       1.0  0.20484  0.77201  0.29543  1.0000
  H   H24       1.0  0.18188  0.78145  0.20106  1.0000
  C   C31       1.0  0.00240  0.97879  0.33476  1.0000
  C   C32       1.0  0.97872  0.99226  0.28904  1.0000
  C   C33       1.0  0.97978  0.01818  0.28448  1.0000
  C   C34       1.0  0.00497  0.03060  0.32982  1.0000
  H   H25       1.0  0.96094  0.98305  0.25638  1.0000
  C   C35       1.0  0.95580  0.03104  0.22782  1.0000
  H   H26       1.0  0.94135  0.01844  0.18805  1.0000
  H   H27       1.0  0.96774  0.04336  0.18074  1.0000
  H   H28       1.0  0.43972  0.04159  0.27024  1.0000
  C   C36       1.0  0.25417  0.47894  0.33090  1.0000
  C   C37       1.0  0.25891  0.49133  0.24868  1.0000
  C   C38       1.0  0.25938  0.51729  0.24578  1.0000
  C   C39       1.0  0.25528  0.53032  0.32783  1.0000
  H   H29       1.0  0.26176  0.48138  0.19080  1.0000
  C   C40       1.0  0.26316  0.53020  0.15833  1.0000
  H   H30       1.0  0.26510  0.51753  0.10172  1.0000
  H   H31       1.0  0.28458  0.54145  0.15961  1.0000
  H   H32       1.0  0.24263  0.54200  0.14635  1.0000
  C   C41       1.0  0.19216  0.17599  0.37575  1.0000
  N   N21       1.0  0.17223  0.15713  0.35141  1.0000
  C   C42       1.0  0.14084  0.16116  0.33020  1.0000
  N   N22       1.0  0.13028  0.18473  0.33687  1.0000
  C   C43       1.0  0.14858  0.20408  0.35954  1.0000
  N   N23       1.0  0.17925  0.19888  0.37694  1.0000
  C   C44       1.0  0.31971  0.83317  0.37120  1.0000
  N   N24       1.0  0.33987  0.85186  0.34639  1.0000
  C   C45       1.0  0.37119  0.84756  0.32484  1.0000
  N   N25       1.0  0.38142  0.82392  0.33154  1.0000
  C   C46       1.0  0.36285  0.80477  0.35435  1.0000
  N   N26       1.0  0.33231  0.81020  0.37223  1.0000
  C   C47       1.0  0.32603  0.17574  0.37359  1.0000
  N   N27       1.0  0.34936  0.15813  0.36605  1.0000
  C   C48       1.0  0.38097  0.16447  0.35639  1.0000
  N   N28       1.0  0.38727  0.18878  0.34731  1.0000
  C   C49       1.0  0.36544  0.20674  0.34849  1.0000
  N   N29       1.0  0.33552  0.19941  0.36386  1.0000
  C   C50       1.0  0.18585  0.83378  0.37501  1.0000
  N   N30       1.0  0.16265  0.85152  0.36902  1.0000
  C   C51       1.0  0.13093  0.84537  0.36129  1.0000
  N   N31       1.0  0.12434  0.82107  0.35238  1.0000
  C   C52       1.0  0.14599  0.80295  0.35216  1.0000
  N   N32       1.0  0.17610  0.81014  0.36580  1.0000
  C   C53       1.0  0.43720  0.67310  0.39172  1.0000
  N   N33       1.0  0.41529  0.65614  0.36329  1.0000
  C   C54       1.0  0.38500  0.66277  0.33825  1.0000
  N   N34       1.0  0.37820  0.68723  0.34028  1.0000
  C   C55       1.0  0.39888  0.70494  0.36514  1.0000
  N   N35       1.0  0.42789  0.69696  0.39012  1.0000
  C   C56       1.0  0.07290  0.33561  0.39279  1.0000
  N   N36       1.0  0.09479  0.35262  0.36479  1.0000
  C   C57       1.0  0.12513  0.34606  0.34032  1.0000
  N   N37       1.0  0.13210  0.32162  0.34270  1.0000
  C   C58       1.0  0.11146  0.30384  0.36738  1.0000
  N   N38       1.0  0.08232  0.31176  0.39168  1.0000
  C   C59       1.0  0.06926  0.67309  0.37907  1.0000
  N   N39       1.0  0.09201  0.65528  0.36633  1.0000
  C   C60       1.0  0.12333  0.66139  0.35181  1.0000
  N   N40       1.0  0.12941  0.68565  0.34174  1.0000
  C   C61       1.0  0.10814  0.70396  0.34961  1.0000
  N   N41       1.0  0.07842  0.69703  0.37163  1.0000
  C   C62       1.0  0.44089  0.33666  0.37837  1.0000
  N   N42       1.0  0.41814  0.35448  0.36554  1.0000
  C   C63       1.0  0.38686  0.34838  0.35001  1.0000
  N   N43       1.0  0.38085  0.32413  0.33904  1.0000
  C   C64       1.0  0.40215  0.30584  0.34680  1.0000
  N   N44       1.0  0.43176  0.31276  0.36982  1.0000
  C   C65       1.0  0.04011  0.09294  0.32136  1.0000
  N   N45       1.0  0.03753  0.06798  0.32764  1.0000
  C   C66       1.0  0.00830  0.05668  0.33373  1.0000
  N   N46       1.0  0.48159  0.07108  0.33953  1.0000
  C   C67       1.0  0.48286  0.09597  0.33876  1.0000
  N   N47       1.0  0.01234  0.10523  0.32808  1.0000
  C   C68       1.0  0.47204  0.91552  0.32080  1.0000
  N   N48       1.0  0.47351  0.94037  0.32750  1.0000
  C   C69       1.0  0.50188  0.95263  0.33790  1.0000
  N   N49       1.0  0.02944  0.93919  0.34598  1.0000
  C   C70       1.0  0.02915  0.91414  0.34413  1.0000
  N   N50       1.0  0.50022  0.90405  0.32993  1.0000
  C   C71       1.0  0.28447  0.59377  0.31945  1.0000
  N   N51       1.0  0.28380  0.56881  0.32524  1.0000
  C   C72       1.0  0.25557  0.55626  0.33337  1.0000
  N   N52       1.0  0.22739  0.56896  0.33778  1.0000
  C   C73       1.0  0.22685  0.59397  0.33616  1.0000
  N   N53       1.0  0.25569  0.60450  0.32582  1.0000
  C   C74       1.0  0.22513  0.41550  0.32151  1.0000
  N   N54       1.0  0.22566  0.44045  0.32857  1.0000
  C   C75       1.0  0.25389  0.45306  0.33522  1.0000
  N   N55       1.0  0.28217  0.44043  0.33699  1.0000
  C   C76       1.0  0.28287  0.41543  0.33485  1.0000
  N   N56       1.0  0.25402  0.40486  0.32583  1.0000
  C   C77       1.0  0.29278  0.17326  0.38835  1.0000
  C   C78       1.0  0.27626  0.19269  0.43077  1.0000
  C   C79       1.0  0.24293  0.19349  0.43596  1.0000
  C   C80       1.0  0.22537  0.17439  0.39290  1.0000
  H   H33       1.0  0.28887  0.20666  0.45994  1.0000
  C   C81       1.0  0.22877  0.21383  0.49017  1.0000
  H   H34       1.0  0.24579  0.22218  0.53648  1.0000
  H   H35       1.0  0.20922  0.20695  0.53125  1.0000
  H   H36       1.0  0.22014  0.22829  0.44571  1.0000
  C   C82       1.0  0.21918  0.83619  0.38812  1.0000
  C   C83       1.0  0.23584  0.81674  0.42988  1.0000
  C   C84       1.0  0.26919  0.81593  0.43394  1.0000
  C   C85       1.0  0.28660  0.83493  0.38970  1.0000
  H   H37       1.0  0.22334  0.80283  0.45980  1.0000
  C   C86       1.0  0.28353  0.79572  0.48844  1.0000
  H   H38       1.0  0.26675  0.78767  0.53611  1.0000
  H   H39       1.0  0.30342  0.80264  0.52812  1.0000
  H   H40       1.0  0.29173  0.78104  0.44429  1.0000
  C   C87       1.0  0.03665  0.66960  0.39896  1.0000
  C   C88       1.0  0.02071  0.68726  0.45176  1.0000
  C   C89       1.0  0.48759  0.68661  0.46352  1.0000
  C   C90       1.0  0.46974  0.66926  0.41255  1.0000
  H   H41       1.0  0.03355  0.70030  0.48563  1.0000
  C   C91       1.0  0.47418  0.70333  0.53323  1.0000
  H   H42       1.0  0.48735  0.70127  0.59612  1.0000
  H   H43       1.0  0.44939  0.69939  0.54884  1.0000
  H   H44       1.0  0.47627  0.72230  0.51097  1.0000
  C   C92       1.0  0.47347  0.33994  0.39911  1.0000
  C   C93       1.0  0.48910  0.32207  0.45180  1.0000
  C   C94       1.0  0.02222  0.32232  0.46360  1.0000
  C   C95       1.0  0.04034  0.33957  0.41306  1.0000
  H   H45       1.0  0.47602  0.30908  0.48526  1.0000
  C   C96       1.0  0.03531  0.30531  0.53284  1.0000
  H   H46       1.0  0.02198  0.30718  0.59552  1.0000
  H   H47       1.0  0.06008  0.30911  0.54924  1.0000
  H   H48       1.0  0.03320  0.28642  0.50958  1.0000
  N   N57       1.0  0.12053  0.11945  0.33976  1.0000
  N   N58       1.0  0.09728  0.10310  0.33928  1.0000
  N   N59       1.0  0.39166  0.88912  0.33371  1.0000
  N   N60       1.0  0.41496  0.90539  0.33435  1.0000
  C   C97       1.0  0.45742  0.11302  0.34610  1.0000
  C   C98       1.0  0.46408  0.13832  0.35426  1.0000
  C   C99       1.0  0.44008  0.15621  0.36091  1.0000
  C   C100      1.0  0.40761  0.14831  0.35588  1.0000
  H   H49       1.0  0.48719  0.14405  0.35762  1.0000
  C   C101      1.0  0.45129  0.18189  0.37742  1.0000
  H   H50       1.0  0.47684  0.18337  0.38925  1.0000
  H   H51       1.0  0.43970  0.18931  0.43722  1.0000
  H   H52       1.0  0.44602  0.19336  0.31922  1.0000
  C   C102      1.0  0.05475  0.89721  0.35323  1.0000
  C   C103      1.0  0.04815  0.87192  0.36382  1.0000
  C   C104      1.0  0.07206  0.85396  0.36996  1.0000
  C   C105      1.0  0.10450  0.86172  0.36241  1.0000
  H   H53       1.0  0.02509  0.86620  0.36935  1.0000
  C   C106      1.0  0.06082  0.82838  0.38858  1.0000
  H   H54       1.0  0.03542  0.82707  0.40287  1.0000
  H   H55       1.0  0.07304  0.82107  0.44754  1.0000
  H   H56       1.0  0.06530  0.81671  0.33037  1.0000
  N   N61       1.0  0.36392  0.62155  0.33804  1.0000
  N   N62       1.0  0.34116  0.60488  0.33450  1.0000
  N   N63       1.0  0.14592  0.38735  0.34087  1.0000
  N   N64       1.0  0.16856  0.40412  0.33744  1.0000
  C   C107      1.0  0.20066  0.61045  0.34298  1.0000
  C   C108      1.0  0.20658  0.63584  0.35297  1.0000
  C   C109      1.0  0.18227  0.65343  0.35908  1.0000
  C   C110      1.0  0.15001  0.64526  0.35102  1.0000
  H   H57       1.0  0.22945  0.64195  0.35870  1.0000
  C   C111      1.0  0.19307  0.67900  0.37930  1.0000
  H   H58       1.0  0.21820  0.68044  0.39672  1.0000
  H   H59       1.0  0.17997  0.68637  0.43656  1.0000
  H   H60       1.0  0.18948  0.69047  0.32021  1.0000
  C   C112      1.0  0.30918  0.39903  0.34080  1.0000
  C   C113      1.0  0.30343  0.37361  0.35018  1.0000
  C   C114      1.0  0.32786  0.35612  0.35664  1.0000
  C   C115      1.0  0.36008  0.36442  0.34914  1.0000
  H   H61       1.0  0.28061  0.36738  0.35531  1.0000
  C   C116      1.0  0.31719  0.33052  0.37693  1.0000
  H   H62       1.0  0.29208  0.32901  0.39456  1.0000
  H   H63       1.0  0.33037  0.32317  0.43407  1.0000
  H   H64       1.0  0.32076  0.31907  0.31779  1.0000
  C   C117      1.0  0.11930  0.27840  0.36843  1.0000
  C   C118      1.0  0.09872  0.26033  0.40398  1.0000
  C   C119      1.0  0.10716  0.23520  0.40394  1.0000
  C   C120      1.0  0.13685  0.22849  0.36536  1.0000
  H   H65       1.0  0.07754  0.26552  0.43155  1.0000
  C   C121      1.0  0.08608  0.21720  0.44974  1.0000
  H   H66       1.0  0.06597  0.22590  0.48327  1.0000
  H   H67       1.0  0.09952  0.20720  0.50071  1.0000
  H   H68       1.0  0.07656  0.20421  0.40104  1.0000
  C   C122      1.0  0.39125  0.73040  0.36564  1.0000
  C   C123      1.0  0.41174  0.74834  0.40240  1.0000
  C   C124      1.0  0.40354  0.77351  0.40164  1.0000
  C   C125      1.0  0.37428  0.78033  0.36090  1.0000
  H   H69       1.0  0.43263  0.74306  0.43140  1.0000
  C   C126      1.0  0.42436  0.79143  0.44883  1.0000
  H   H70       1.0  0.44413  0.78265  0.48368  1.0000
  H   H71       1.0  0.41057  0.80149  0.49885  1.0000
  H   H72       1.0  0.43439  0.80438  0.40077  1.0000
  N   N65       1.0  0.40096  0.23979  0.37667  1.0000
  N   N66       1.0  0.41003  0.26276  0.37691  1.0000
  N   N67       1.0  0.11015  0.77004  0.38076  1.0000
  N   N68       1.0  0.10079  0.74712  0.38078  1.0000
  N   N69       1.0  0.02735  0.01624  0.37013  1.0000
  N   N70       1.0  0.02630  0.99216  0.37223  1.0000
  N   N71       1.0  0.25054  0.51698  0.40408  1.0000
  N   N72       1.0  0.25003  0.49291  0.40572  1.0000
  N   N73       1.0  0.74283  0.15511  0.36078  1.0000
  N   N74       1.0  0.77426  0.15437  0.35916  1.0000
  N   N75       1.0  0.76904  0.85422  0.35811  1.0000
  N   N76       1.0  0.73761  0.85502  0.35792  1.0000
  N   N77       1.0  0.98683  0.65161  0.36871  1.0000
  N   N78       1.0  0.51820  0.65146  0.36354  1.0000
  N   N79       1.0  0.52360  0.35747  0.36953  1.0000
  N   N80       1.0  0.99224  0.35794  0.36408  1.0000
  C   C127      1.0  0.56721  0.10832  0.31081  1.0000
  C   C128      1.0  0.56328  0.13182  0.27179  1.0000
  C   C129      1.0  0.58814  0.14901  0.26731  1.0000
  C   C130      1.0  0.61752  0.14308  0.30989  1.0000
  H   H73       1.0  0.54206  0.13636  0.24240  1.0000
  C   C131      1.0  0.58259  0.17127  0.21087  1.0000
  H   H74       1.0  0.56593  0.16766  0.15613  1.0000
  H   H75       1.0  0.60458  0.17749  0.17942  1.0000
  H   H76       1.0  0.57281  0.18598  0.25211  1.0000
  C   C132      1.0  0.94529  0.89995  0.30887  1.0000
  C   C133      1.0  0.94971  0.87629  0.27194  1.0000
  C   C134      1.0  0.92471  0.85926  0.26539  1.0000
  C   C135      1.0  0.89486  0.86541  0.30508  1.0000
  H   H77       1.0  0.97134  0.87159  0.24538  1.0000
  C   C136      1.0  0.93074  0.83686  0.21015  1.0000
  H   H78       1.0  0.94790  0.84036  0.15656  1.0000
  H   H79       1.0  0.90906  0.83058  0.17724  1.0000
  H   H80       1.0  0.94015  0.82225  0.25254  1.0000
  N   N81       1.0  0.90299  0.12352  0.35098  1.0000
  N   N82       1.0  0.92597  0.10707  0.34672  1.0000
  N   N83       1.0  0.60918  0.88651  0.35649  1.0000
  N   N84       1.0  0.58625  0.90304  0.35250  1.0000
  C   C137      1.0  0.81057  0.61028  0.31204  1.0000
  C   C138      1.0  0.80530  0.63484  0.28480  1.0000
  C   C139      1.0  0.82934  0.65283  0.28622  1.0000
  C   C140      1.0  0.86003  0.64592  0.31880  1.0000
  H   H81       1.0  0.78326  0.63988  0.26234  1.0000
  C   C141      1.0  0.82069  0.67765  0.25143  1.0000
  H   H82       1.0  0.79781  0.67804  0.21673  1.0000
  H   H83       1.0  0.83847  0.68384  0.20304  1.0000
  H   H84       1.0  0.81913  0.69066  0.30698  1.0000
  C   C142      1.0  0.69913  0.39888  0.31429  1.0000
  C   C143      1.0  0.70449  0.37440  0.28620  1.0000
  C   C144      1.0  0.68058  0.35631  0.28766  1.0000
  C   C145      1.0  0.64994  0.36303  0.32097  1.0000
  H   H85       1.0  0.72648  0.36948  0.26303  1.0000
  C   C146      1.0  0.68924  0.33159  0.25190  1.0000
  H   H86       1.0  0.71198  0.33136  0.21652  1.0000
  H   H87       1.0  0.67131  0.32544  0.20388  1.0000
  H   H88       1.0  0.69107  0.31846  0.30703  1.0000
  N   N85       1.0  0.64592  0.62040  0.34547  1.0000
  N   N86       1.0  0.66929  0.60419  0.34191  1.0000
  N   N87       1.0  0.86400  0.38930  0.34397  1.0000
  N   N88       1.0  0.84052  0.40542  0.34033  1.0000
  N   N89       1.0  0.65559  0.24699  0.33405  1.0000
  N   N90       1.0  0.64749  0.27021  0.33531  1.0000
  N   N91       1.0  0.85556  0.76195  0.32860  1.0000
  N   N92       1.0  0.86341  0.73869  0.33062  1.0000
  C   C147      1.0  0.89269  0.28100  0.33870  1.0000
  C   C148      1.0  0.86440  0.27407  0.29446  1.0000
  C   C149      1.0  0.85399  0.24945  0.29445  1.0000
  C   C150      1.0  0.87333  0.23184  0.33903  1.0000
  H   H89       1.0  0.85137  0.28701  0.26125  1.0000
  C   C151      1.0  0.82423  0.24298  0.24572  1.0000
  H   H90       1.0  0.81458  0.25834  0.20734  1.0000
  H   H91       1.0  0.80605  0.23724  0.29357  1.0000
  H   H92       1.0  0.82883  0.22808  0.19847  1.0000
  C   C152      1.0  0.61779  0.72880  0.34188  1.0000
  C   C153      1.0  0.64605  0.73562  0.29721  1.0000
  C   C154      1.0  0.65676  0.76017  0.29740  1.0000
  C   C155      1.0  0.63778  0.77788  0.34272  1.0000
  H   H93       1.0  0.65885  0.72263  0.26351  1.0000
  C   C156      1.0  0.68644  0.76647  0.24798  1.0000
  H   H94       1.0  0.69577  0.75108  0.20912  1.0000
  H   H95       1.0  0.70485  0.77201  0.29543  1.0000
  H   H96       1.0  0.68188  0.78145  0.20106  1.0000
  C   C157      1.0  0.50240  0.97879  0.33476  1.0000
  C   C158      1.0  0.47872  0.99226  0.28904  1.0000
  C   C159      1.0  0.47978  0.01818  0.28448  1.0000
  C   C160      1.0  0.50497  0.03060  0.32982  1.0000
  H   H97       1.0  0.46094  0.98305  0.25638  1.0000
  C   C161      1.0  0.45581  0.03104  0.22782  1.0000
  H   H98       1.0  0.44135  0.01844  0.18805  1.0000
  H   H99       1.0  0.46775  0.04336  0.18074  1.0000
  H   H100      1.0  0.93971  0.04159  0.27024  1.0000
  C   C162      1.0  0.75417  0.47894  0.33090  1.0000
  C   C163      1.0  0.75891  0.49133  0.24868  1.0000
  C   C164      1.0  0.75938  0.51729  0.24578  1.0000
  C   C165      1.0  0.75528  0.53032  0.32783  1.0000
  H   H101      1.0  0.76176  0.48138  0.19080  1.0000
  C   C166      1.0  0.76316  0.53020  0.15833  1.0000
  H   H102      1.0  0.76510  0.51753  0.10172  1.0000
  H   H103      1.0  0.78458  0.54145  0.15961  1.0000
  H   H104      1.0  0.74263  0.54200  0.14635  1.0000
  C   C167      1.0  0.69216  0.17599  0.37575  1.0000
  N   N93       1.0  0.67223  0.15713  0.35141  1.0000
  C   C168      1.0  0.64084  0.16116  0.33020  1.0000
  N   N94       1.0  0.63028  0.18473  0.33687  1.0000
  C   C169      1.0  0.64858  0.20408  0.35954  1.0000
  N   N95       1.0  0.67925  0.19888  0.37694  1.0000
  C   C170      1.0  0.81971  0.83317  0.37120  1.0000
  N   N96       1.0  0.83987  0.85186  0.34639  1.0000
  C   C171      1.0  0.87119  0.84756  0.32484  1.0000
  N   N97       1.0  0.88142  0.82392  0.33154  1.0000
  C   C172      1.0  0.86285  0.80477  0.35435  1.0000
  N   N98       1.0  0.83231  0.81020  0.37223  1.0000
  C   C173      1.0  0.82603  0.17574  0.37359  1.0000
  N   N99       1.0  0.84936  0.15813  0.36605  1.0000
  C   C174      1.0  0.88097  0.16447  0.35639  1.0000
  N   N100      1.0  0.88727  0.18878  0.34731  1.0000
  C   C175      1.0  0.86544  0.20674  0.34849  1.0000
  N   N101      1.0  0.83552  0.19941  0.36386  1.0000
  C   C176      1.0  0.68585  0.83378  0.37501  1.0000
  N   N102      1.0  0.66265  0.85152  0.36902  1.0000
  C   C177      1.0  0.63093  0.84537  0.36129  1.0000
  N   N103      1.0  0.62434  0.82107  0.35238  1.0000
  C   C178      1.0  0.64599  0.80295  0.35216  1.0000
  N   N104      1.0  0.67610  0.81014  0.36580  1.0000
  C   C179      1.0  0.93720  0.67310  0.39172  1.0000
  N   N105      1.0  0.91529  0.65614  0.36329  1.0000
  C   C180      1.0  0.88500  0.66277  0.33825  1.0000
  N   N106      1.0  0.87820  0.68723  0.34028  1.0000
  C   C181      1.0  0.89888  0.70494  0.36514  1.0000
  N   N107      1.0  0.92789  0.69696  0.39012  1.0000
  C   C182      1.0  0.57290  0.33561  0.39279  1.0000
  N   N108      1.0  0.59479  0.35262  0.36479  1.0000
  C   C183      1.0  0.62514  0.34606  0.34032  1.0000
  N   N109      1.0  0.63210  0.32162  0.34270  1.0000
  C   C184      1.0  0.61146  0.30384  0.36738  1.0000
  N   N110      1.0  0.58232  0.31176  0.39168  1.0000
  C   C185      1.0  0.56926  0.67309  0.37907  1.0000
  N   N111      1.0  0.59201  0.65528  0.36633  1.0000
  C   C186      1.0  0.62333  0.66139  0.35181  1.0000
  N   N112      1.0  0.62941  0.68565  0.34174  1.0000
  C   C187      1.0  0.60814  0.70396  0.34961  1.0000
  N   N113      1.0  0.57842  0.69703  0.37163  1.0000
  C   C188      1.0  0.94089  0.33666  0.37837  1.0000
  N   N114      1.0  0.91814  0.35448  0.36554  1.0000
  C   C189      1.0  0.88686  0.34838  0.35001  1.0000
  N   N115      1.0  0.88085  0.32413  0.33904  1.0000
  C   C190      1.0  0.90215  0.30584  0.34680  1.0000
  N   N116      1.0  0.93176  0.31276  0.36982  1.0000
  C   C191      1.0  0.54011  0.09294  0.32136  1.0000
  N   N117      1.0  0.53753  0.06798  0.32764  1.0000
  C   C192      1.0  0.50830  0.05668  0.33373  1.0000
  N   N118      1.0  0.98158  0.07108  0.33953  1.0000
  C   C193      1.0  0.98286  0.09597  0.33876  1.0000
  N   N119      1.0  0.51234  0.10523  0.32808  1.0000
  C   C194      1.0  0.97204  0.91552  0.32080  1.0000
  N   N120      1.0  0.97351  0.94037  0.32750  1.0000
  C   C195      1.0  0.00188  0.95263  0.33790  1.0000
  N   N121      1.0  0.52944  0.93919  0.34598  1.0000
  C   C196      1.0  0.52915  0.91414  0.34413  1.0000
  N   N122      1.0  0.00022  0.90405  0.32993  1.0000
  C   C197      1.0  0.78446  0.59377  0.31945  1.0000
  N   N123      1.0  0.78380  0.56881  0.32524  1.0000
  C   C198      1.0  0.75557  0.55626  0.33337  1.0000
  N   N124      1.0  0.72739  0.56896  0.33778  1.0000
  C   C199      1.0  0.72685  0.59397  0.33616  1.0000
  N   N125      1.0  0.75569  0.60450  0.32582  1.0000
  C   C200      1.0  0.72513  0.41550  0.32151  1.0000
  N   N126      1.0  0.72566  0.44045  0.32857  1.0000
  C   C201      1.0  0.75389  0.45306  0.33522  1.0000
  N   N127      1.0  0.78217  0.44043  0.33699  1.0000
  C   C202      1.0  0.78287  0.41543  0.33485  1.0000
  N   N128      1.0  0.75402  0.40486  0.32583  1.0000
  C   C203      1.0  0.79278  0.17326  0.38835  1.0000
  C   C204      1.0  0.77626  0.19269  0.43077  1.0000
  C   C205      1.0  0.74293  0.19349  0.43596  1.0000
  C   C206      1.0  0.72537  0.17439  0.39290  1.0000
  H   H105      1.0  0.78887  0.20666  0.45994  1.0000
  C   C207      1.0  0.72877  0.21383  0.49017  1.0000
  H   H106      1.0  0.74579  0.22218  0.53648  1.0000
  H   H107      1.0  0.70922  0.20695  0.53125  1.0000
  H   H108      1.0  0.72014  0.22829  0.44571  1.0000
  C   C208      1.0  0.71918  0.83619  0.38812  1.0000
  C   C209      1.0  0.73584  0.81674  0.42988  1.0000
  C   C210      1.0  0.76919  0.81593  0.43394  1.0000
  C   C211      1.0  0.78660  0.83493  0.38970  1.0000
  H   H109      1.0  0.72334  0.80283  0.45980  1.0000
  C   C212      1.0  0.78353  0.79572  0.48844  1.0000
  H   H110      1.0  0.76675  0.78767  0.53611  1.0000
  H   H111      1.0  0.80342  0.80264  0.52812  1.0000
  H   H112      1.0  0.79173  0.78104  0.44429  1.0000
  C   C213      1.0  0.53665  0.66960  0.39896  1.0000
  C   C214      1.0  0.52070  0.68726  0.45176  1.0000
  C   C215      1.0  0.98759  0.68661  0.46352  1.0000
  C   C216      1.0  0.96974  0.66926  0.41255  1.0000
  H   H113      1.0  0.53354  0.70030  0.48563  1.0000
  C   C217      1.0  0.97418  0.70333  0.53323  1.0000
  H   H114      1.0  0.98735  0.70127  0.59612  1.0000
  H   H115      1.0  0.94939  0.69939  0.54884  1.0000
  H   H116      1.0  0.97627  0.72230  0.51097  1.0000
  C   C218      1.0  0.97347  0.33994  0.39911  1.0000
  C   C219      1.0  0.98909  0.32207  0.45180  1.0000
  C   C220      1.0  0.52222  0.32232  0.46360  1.0000
  C   C221      1.0  0.54035  0.33957  0.41306  1.0000
  H   H117      1.0  0.97602  0.30908  0.48526  1.0000
  C   C222      1.0  0.53532  0.30531  0.53284  1.0000
  H   H118      1.0  0.52198  0.30718  0.59552  1.0000
  H   H119      1.0  0.56008  0.30911  0.54924  1.0000
  H   H120      1.0  0.53320  0.28642  0.50958  1.0000
  N   N129      1.0  0.62053  0.11945  0.33976  1.0000
  N   N130      1.0  0.59728  0.10310  0.33928  1.0000
  N   N131      1.0  0.89166  0.88912  0.33371  1.0000
  N   N132      1.0  0.91496  0.90539  0.33435  1.0000
  C   C223      1.0  0.95742  0.11302  0.34610  1.0000
  C   C224      1.0  0.96408  0.13832  0.35426  1.0000
  C   C225      1.0  0.94008  0.15621  0.36091  1.0000
  C   C226      1.0  0.90761  0.14831  0.35588  1.0000
  H   H121      1.0  0.98719  0.14405  0.35762  1.0000
  C   C227      1.0  0.95129  0.18189  0.37742  1.0000
  H   H122      1.0  0.97684  0.18337  0.38925  1.0000
  H   H123      1.0  0.93970  0.18931  0.43722  1.0000
  H   H124      1.0  0.94602  0.19336  0.31922  1.0000
  C   C228      1.0  0.55475  0.89721  0.35323  1.0000
  C   C229      1.0  0.54815  0.87192  0.36382  1.0000
  C   C230      1.0  0.57206  0.85396  0.36996  1.0000
  C   C231      1.0  0.60450  0.86172  0.36241  1.0000
  H   H125      1.0  0.52509  0.86620  0.36935  1.0000
  C   C232      1.0  0.56082  0.82838  0.38858  1.0000
  H   H126      1.0  0.53542  0.82707  0.40287  1.0000
  H   H127      1.0  0.57304  0.82107  0.44754  1.0000
  H   H128      1.0  0.56530  0.81671  0.33037  1.0000
  N   N133      1.0  0.86392  0.62155  0.33804  1.0000
  N   N134      1.0  0.84116  0.60488  0.33450  1.0000
  N   N135      1.0  0.64592  0.38735  0.34087  1.0000
  N   N136      1.0  0.66856  0.40412  0.33744  1.0000
  C   C233      1.0  0.70066  0.61045  0.34298  1.0000
  C   C234      1.0  0.70658  0.63584  0.35297  1.0000
  C   C235      1.0  0.68227  0.65343  0.35908  1.0000
  C   C236      1.0  0.65001  0.64526  0.35102  1.0000
  H   H129      1.0  0.72945  0.64195  0.35870  1.0000
  C   C237      1.0  0.69307  0.67900  0.37930  1.0000
  H   H130      1.0  0.71820  0.68044  0.39672  1.0000
  H   H131      1.0  0.67997  0.68637  0.43656  1.0000
  H   H132      1.0  0.68948  0.69047  0.32021  1.0000
  C   C238      1.0  0.80919  0.39903  0.34080  1.0000
  C   C239      1.0  0.80343  0.37361  0.35018  1.0000
  C   C240      1.0  0.82786  0.35612  0.35664  1.0000
  C   C241      1.0  0.86008  0.36442  0.34914  1.0000
  H   H133      1.0  0.78060  0.36738  0.35531  1.0000
  C   C242      1.0  0.81719  0.33052  0.37693  1.0000
  H   H134      1.0  0.79208  0.32901  0.39456  1.0000
  H   H135      1.0  0.83037  0.32317  0.43407  1.0000
  H   H136      1.0  0.82076  0.31907  0.31779  1.0000
  C   C243      1.0  0.61930  0.27840  0.36843  1.0000
  C   C244      1.0  0.59872  0.26033  0.40398  1.0000
  C   C245      1.0  0.60716  0.23520  0.40394  1.0000
  C   C246      1.0  0.63685  0.22849  0.36536  1.0000
  H   H137      1.0  0.57754  0.26552  0.43155  1.0000
  C   C247      1.0  0.58608  0.21720  0.44974  1.0000
  H   H138      1.0  0.56597  0.22590  0.48327  1.0000
  H   H139      1.0  0.59952  0.20720  0.50071  1.0000
  H   H140      1.0  0.57656  0.20421  0.40104  1.0000
  C   C248      1.0  0.89125  0.73040  0.36564  1.0000
  C   C249      1.0  0.91174  0.74834  0.40240  1.0000
  C   C250      1.0  0.90354  0.77351  0.40164  1.0000
  C   C251      1.0  0.87428  0.78033  0.36090  1.0000
  H   H141      1.0  0.93263  0.74306  0.43140  1.0000
  C   C252      1.0  0.92436  0.79143  0.44883  1.0000
  H   H142      1.0  0.94413  0.78265  0.48368  1.0000
  H   H143      1.0  0.91057  0.80149  0.49885  1.0000
  H   H144      1.0  0.93439  0.80438  0.40077  1.0000
  N   N137      1.0  0.90096  0.23979  0.37667  1.0000
  N   N138      1.0  0.91003  0.26276  0.37691  1.0000
  N   N139      1.0  0.61015  0.77004  0.38076  1.0000
  N   N140      1.0  0.60079  0.74712  0.38078  1.0000
  N   N141      1.0  0.52735  0.01624  0.37013  1.0000
  N   N142      1.0  0.52630  0.99216  0.37223  1.0000
  N   N143      1.0  0.75054  0.51698  0.40408  1.0000
  N   N144      1.0  0.75003  0.49291  0.40572  1.0000
