data_image0
_chemical_formula_structural       C7H2NH2NO2C7H2NH2NO2C7H2NH2NO2C7H2NH2NO2C2HC3HNH2NO2C2HC3HNH2NO2C2HC3HNH2NO2C2HC3HNH2NO2C2HC3HNH2NO2C2HC3HNH2NO2C2HC3HNH2NO2C2HC3HNH2NO2C7H2NH2NO2C7H2NH2NO2C7H2NH2NO2C7H2NH2NO2C2HC3HNH2NO2C2HC3HNH2NO2C2HC3HNH2NO2C2HC3HNH2NO2C7H2NH2NO2C7H2NH2NO2C7H2NH2NO2C7H2NH2NO2C2HC3HNH2NO2C2HC3HNH2NO2C7H2NH2NO2C7H2NH2NO2C7H2NH2NO2C7H2NH2NO2C2HC3HNH2NO2C2HC3HNH2NO2C2HC3HNH2NO2C2HC3HNH2NO2C2HC3HNH2NO2C2HC3HNH2NO2C2HC3HNH2NO2C2HC3HNH2NO2C7H2NH2NO2C7H2NH2NO2C7H2NH2NO2C7H2NH2NO2CNCNCNCNCNCNCNCNCNCNCNCNCNCNCNCNCNCNCNCNCNCNCNCNCNCNCNCNCNCNCNCNCNCNCNCNCNCNCNCNCNCNCNCNCNCNCNCNCNCNCNCNCNCNCNCNCNCNCNCNCNCNCNCNCNCNCNCNCNCNCNCNCNCNCNCNCNCNCNCNCNCNCNCNC2HC3HNH2NO2C2HC3HNH2NO2C2HC3HNH2NO2C2HC3HNH2NO2C7H2NH2NO2C7H2NH2NO2C7H2NH2NO2C7H2NH2NO2C7H2NH2NO2C7H2NH2NO2C7H2NH2NO2C7H2NH2NO2C2HC3HNH2NO2C2HC3HNH2NO2C2HC3HNH2NO2C2HC3HNH2NO2C7H2NH2NO2C7H2NH2NO2C7H2NH2NO2C7H2NH2NO2C2HC3HNH2NO2C2HC3HNH2NO2C2HC3HNH2NO2C2HC3HNH2NO2C7H2NH2NO2C7H2NH2NO2C2HC3HNH2NO2C2HC3HNH2NO2C2HC3HNH2NO2C2HC3HNH2NO2C7H2NH2NO2C7H2NH2NO2C7H2NH2NO2C7H2NH2NO2C7H2NH2NO2C7H2NH2NO2C7H2NH2NO2C7H2NH2NO2C2HC3HNH2NO2C2HC3HNH2NO2C2HC3HNH2NO2C2HC3HNH2NO2
_chemical_formula_sum              "C588 H336 N252 O168"
_cell_length_a       77.9168
_cell_length_b       77.9168
_cell_length_c       14.8304
_cell_angle_alpha    90
_cell_angle_beta     90
_cell_angle_gamma    90

_space_group_name_H-M_alt    "P 1"
_space_group_IT_number       1

loop_
  _space_group_symop_operation_xyz
  'x, y, z'

loop_
  _atom_site_type_symbol
  _atom_site_label
  _atom_site_symmetry_multiplicity
  _atom_site_fract_x
  _atom_site_fract_y
  _atom_site_fract_z
  _atom_site_occupancy
  C   C1        1.0  0.17560  0.17501  0.34116  1.0000
  C   C2        1.0  0.17865  0.15807  0.30922  1.0000
  C   C3        1.0  0.16522  0.14584  0.31106  1.0000
  C   C4        1.0  0.14873  0.15002  0.34367  1.0000
  C   C5        1.0  0.13581  0.13715  0.34073  1.0000
  C   C6        1.0  0.12274  0.13699  0.27377  1.0000
  C   C7        1.0  0.10993  0.12415  0.27847  1.0000
  H   H1        1.0  0.10053  0.12393  0.23019  1.0000
  H   H2        1.0  0.16752  0.13376  0.28662  1.0000
  N   N1        1.0  0.12212  0.14860  0.20521  1.0000
  H   H3        1.0  0.13080  0.15743  0.19798  1.0000
  H   H4        1.0  0.11312  0.14817  0.15975  1.0000
  N   N2        1.0  0.19480  0.15352  0.27237  1.0000
  O   O1        1.0  0.20172  0.14152  0.31571  1.0000
  O   O2        1.0  0.19364  0.14928  0.19083  1.0000
  C   C8        1.0  0.83582  0.83644  0.34121  1.0000
  C   C9        1.0  0.83277  0.85339  0.30926  1.0000
  C   C10       1.0  0.84620  0.86560  0.31109  1.0000
  C   C11       1.0  0.86269  0.86142  0.34372  1.0000
  C   C12       1.0  0.87561  0.87429  0.34077  1.0000
  C   C13       1.0  0.88868  0.87444  0.27380  1.0000
  C   C14       1.0  0.90150  0.88727  0.27851  1.0000
  H   H5        1.0  0.91090  0.88750  0.23019  1.0000
  H   H6        1.0  0.84391  0.87769  0.28667  1.0000
  N   N3        1.0  0.88930  0.86284  0.20525  1.0000
  H   H7        1.0  0.88061  0.85401  0.19801  1.0000
  H   H8        1.0  0.89830  0.86326  0.15977  1.0000
  N   N4        1.0  0.81662  0.85794  0.27243  1.0000
  O   O3        1.0  0.80970  0.86995  0.31576  1.0000
  O   O4        1.0  0.81778  0.86218  0.19088  1.0000
  C   C15       1.0  0.83644  0.17560  0.34117  1.0000
  C   C16       1.0  0.85338  0.17865  0.30922  1.0000
  C   C17       1.0  0.86560  0.16522  0.31106  1.0000
  C   C18       1.0  0.86141  0.14873  0.34367  1.0000
  C   C19       1.0  0.87429  0.13581  0.34074  1.0000
  C   C20       1.0  0.87445  0.12274  0.27379  1.0000
  C   C21       1.0  0.88728  0.10993  0.27850  1.0000
  H   H9        1.0  0.88750  0.10052  0.23023  1.0000
  H   H10       1.0  0.87768  0.16751  0.28662  1.0000
  N   N5        1.0  0.86284  0.12212  0.20523  1.0000
  H   H11       1.0  0.85401  0.13080  0.19799  1.0000
  H   H12       1.0  0.86327  0.11311  0.15977  1.0000
  N   N6        1.0  0.85793  0.19480  0.27237  1.0000
  O   O5        1.0  0.86994  0.20172  0.31570  1.0000
  O   O6        1.0  0.86217  0.19364  0.19082  1.0000
  C   C22       1.0  0.17500  0.83582  0.34118  1.0000
  C   C23       1.0  0.15805  0.83277  0.30924  1.0000
  C   C24       1.0  0.14583  0.84621  0.31107  1.0000
  C   C25       1.0  0.15002  0.86269  0.34371  1.0000
  C   C26       1.0  0.13714  0.87561  0.34077  1.0000
  C   C27       1.0  0.13698  0.88867  0.27379  1.0000
  C   C28       1.0  0.12415  0.90150  0.27850  1.0000
  H   H13       1.0  0.12392  0.91089  0.23018  1.0000
  H   H14       1.0  0.13375  0.84391  0.28667  1.0000
  N   N7        1.0  0.14858  0.88929  0.20520  1.0000
  H   H15       1.0  0.15741  0.88061  0.19795  1.0000
  H   H16       1.0  0.14815  0.89829  0.15971  1.0000
  N   N8        1.0  0.15351  0.81662  0.27241  1.0000
  O   O7        1.0  0.14150  0.80970  0.31576  1.0000
  O   O8        1.0  0.14926  0.81778  0.19087  1.0000
  C   C29       1.0  0.10935  0.02719  0.30643  1.0000
  C   C30       1.0  0.10612  0.04505  0.31138  1.0000
  H   H17       1.0  0.11406  0.05325  0.27709  1.0000
  C   C31       1.0  0.09601  0.96152  0.33255  1.0000
  C   C32       1.0  0.08990  0.97195  0.26127  1.0000
  C   C33       1.0  0.09175  0.98994  0.26766  1.0000
  H   H18       1.0  0.08687  0.99744  0.21704  1.0000
  N   N9        1.0  0.12314  0.02153  0.25857  1.0000
  H   H19       1.0  0.13085  0.02951  0.22840  1.0000
  H   H20       1.0  0.12595  0.00941  0.25427  1.0000
  N   N10       1.0  0.08191  0.96423  0.18563  1.0000
  O   O9        1.0  0.08992  0.96751  0.11415  1.0000
  O   O10       1.0  0.06663  0.96916  0.17705  1.0000
  C   C34       1.0  0.90209  0.98424  0.30646  1.0000
  C   C35       1.0  0.90533  0.96637  0.31139  1.0000
  H   H21       1.0  0.89739  0.95818  0.27705  1.0000
  C   C36       1.0  0.91541  0.04990  0.33237  1.0000
  C   C37       1.0  0.92153  0.03947  0.26115  1.0000
  C   C38       1.0  0.91968  0.02148  0.26758  1.0000
  H   H22       1.0  0.92457  0.01397  0.21701  1.0000
  N   N11       1.0  0.88831  0.98991  0.25862  1.0000
  H   H23       1.0  0.88060  0.98193  0.22843  1.0000
  H   H24       1.0  0.88550  0.00202  0.25436  1.0000
  N   N12       1.0  0.92952  0.04718  0.18551  1.0000
  O   O11       1.0  0.92151  0.04389  0.11403  1.0000
  O   O12       1.0  0.94480  0.04226  0.17697  1.0000
  C   C39       1.0  0.98423  0.10933  0.30642  1.0000
  C   C40       1.0  0.96637  0.10610  0.31140  1.0000
  H   H25       1.0  0.95818  0.11404  0.27712  1.0000
  C   C41       1.0  0.04991  0.09600  0.33240  1.0000
  C   C42       1.0  0.03947  0.08988  0.26117  1.0000
  C   C43       1.0  0.02148  0.09173  0.26759  1.0000
  H   H26       1.0  0.01398  0.08685  0.21699  1.0000
  N   N13       1.0  0.98990  0.12312  0.25856  1.0000
  H   H27       1.0  0.98192  0.13083  0.22840  1.0000
  H   H28       1.0  0.00201  0.12593  0.25424  1.0000
  N   N14       1.0  0.04718  0.08189  0.18550  1.0000
  O   O13       1.0  0.04389  0.08990  0.11403  1.0000
  O   O14       1.0  0.04226  0.06662  0.17695  1.0000
  C   C44       1.0  0.02719  0.90208  0.30641  1.0000
  C   C45       1.0  0.04505  0.90531  0.31137  1.0000
  H   H29       1.0  0.05325  0.89738  0.27700  1.0000
  C   C46       1.0  0.96152  0.91540  0.33230  1.0000
  C   C47       1.0  0.97196  0.92153  0.26109  1.0000
  C   C48       1.0  0.98995  0.91967  0.26754  1.0000
  H   H30       1.0  0.99746  0.92456  0.21701  1.0000
  N   N15       1.0  0.02152  0.88830  0.25850  1.0000
  H   H31       1.0  0.02950  0.88060  0.22829  1.0000
  H   H32       1.0  0.00941  0.88549  0.25422  1.0000
  N   N16       1.0  0.96425  0.92953  0.18546  1.0000
  O   O15       1.0  0.96754  0.92153  0.11396  1.0000
  O   O16       1.0  0.96918  0.94480  0.17696  1.0000
  C   C49       1.0  0.18503  0.30006  0.29755  1.0000
  C   C50       1.0  0.17943  0.31733  0.29848  1.0000
  H   H33       1.0  0.18739  0.32640  0.27115  1.0000
  C   C51       1.0  0.19098  0.23499  0.33538  1.0000
  C   C52       1.0  0.17917  0.24106  0.26989  1.0000
  C   C53       1.0  0.17360  0.25835  0.27309  1.0000
  H   H34       1.0  0.16544  0.26270  0.22401  1.0000
  N   N17       1.0  0.20064  0.29636  0.26086  1.0000
  H   H35       1.0  0.20787  0.30532  0.23530  1.0000
  H   H36       1.0  0.20497  0.28471  0.25733  1.0000
  N   N18       1.0  0.17377  0.23000  0.19961  1.0000
  O   O17       1.0  0.17847  0.23547  0.12381  1.0000
  O   O18       1.0  0.15775  0.22817  0.19926  1.0000
  C   C54       1.0  0.82636  0.71140  0.29754  1.0000
  C   C55       1.0  0.83196  0.69413  0.29856  1.0000
  H   H37       1.0  0.82400  0.68506  0.27124  1.0000
  C   C56       1.0  0.82042  0.77647  0.33534  1.0000
  C   C57       1.0  0.83223  0.77040  0.26986  1.0000
  C   C58       1.0  0.83780  0.75311  0.27304  1.0000
  H   H38       1.0  0.84595  0.74876  0.22395  1.0000
  N   N19       1.0  0.81076  0.71510  0.26079  1.0000
  H   H39       1.0  0.80353  0.70614  0.23524  1.0000
  H   H40       1.0  0.80643  0.72675  0.25720  1.0000
  N   N20       1.0  0.83762  0.78147  0.19958  1.0000
  O   O19       1.0  0.83293  0.77599  0.12378  1.0000
  O   O20       1.0  0.85364  0.78329  0.19923  1.0000
  C   C59       1.0  0.71140  0.18505  0.29749  1.0000
  C   C60       1.0  0.69412  0.17945  0.29847  1.0000
  H   H41       1.0  0.68506  0.18741  0.27110  1.0000
  C   C61       1.0  0.77646  0.19099  0.33538  1.0000
  C   C62       1.0  0.77039  0.17919  0.26988  1.0000
  C   C63       1.0  0.75310  0.17362  0.27307  1.0000
  H   H42       1.0  0.74875  0.16546  0.22399  1.0000
  N   N21       1.0  0.71510  0.20064  0.26072  1.0000
  H   H43       1.0  0.70615  0.20787  0.23512  1.0000
  H   H44       1.0  0.72675  0.20498  0.25717  1.0000
  N   N22       1.0  0.78145  0.17379  0.19959  1.0000
  O   O21       1.0  0.77597  0.17849  0.12379  1.0000
  O   O22       1.0  0.78328  0.15777  0.19923  1.0000
  C   C64       1.0  0.30005  0.82638  0.29758  1.0000
  C   C65       1.0  0.31732  0.83198  0.29856  1.0000
  H   H45       1.0  0.32639  0.82402  0.27126  1.0000
  C   C66       1.0  0.23498  0.82043  0.33535  1.0000
  C   C67       1.0  0.24105  0.83224  0.26987  1.0000
  C   C68       1.0  0.25834  0.83781  0.27305  1.0000
  H   H46       1.0  0.26268  0.84597  0.22396  1.0000
  N   N23       1.0  0.29636  0.81078  0.26091  1.0000
  H   H47       1.0  0.30532  0.80354  0.23538  1.0000
  H   H48       1.0  0.28471  0.80643  0.25734  1.0000
  N   N24       1.0  0.22998  0.83764  0.19960  1.0000
  O   O23       1.0  0.23545  0.83294  0.12379  1.0000
  O   O24       1.0  0.22815  0.85366  0.19925  1.0000
  C   C69       1.0  0.84755  0.32310  0.35391  1.0000
  C   C70       1.0  0.85852  0.31019  0.31849  1.0000
  C   C71       1.0  0.85314  0.29278  0.31900  1.0000
  C   C72       1.0  0.83699  0.28780  0.35362  1.0000
  C   C73       1.0  0.83192  0.27022  0.34768  1.0000
  C   C74       1.0  0.82024  0.26418  0.28100  1.0000
  C   C75       1.0  0.81461  0.24690  0.28502  1.0000
  H   H49       1.0  0.80639  0.24246  0.23638  1.0000
  H   H50       1.0  0.86100  0.28369  0.29120  1.0000
  N   N25       1.0  0.81434  0.27436  0.21313  1.0000
  H   H51       1.0  0.81808  0.28618  0.20628  1.0000
  H   H52       1.0  0.80646  0.26997  0.16768  1.0000
  N   N26       1.0  0.87440  0.31484  0.27904  1.0000
  O   O25       1.0  0.88679  0.30779  0.31867  1.0000
  O   O26       1.0  0.87494  0.31100  0.19677  1.0000
  C   C76       1.0  0.16385  0.68832  0.35385  1.0000
  C   C77       1.0  0.15288  0.70125  0.31853  1.0000
  C   C78       1.0  0.15827  0.71865  0.31908  1.0000
  C   C79       1.0  0.17442  0.72363  0.35371  1.0000
  C   C80       1.0  0.17950  0.74120  0.34783  1.0000
  C   C81       1.0  0.19118  0.74724  0.28110  1.0000
  C   C82       1.0  0.19682  0.76453  0.28512  1.0000
  H   H53       1.0  0.20502  0.76897  0.23643  1.0000
  H   H54       1.0  0.15040  0.72776  0.29136  1.0000
  N   N27       1.0  0.19706  0.73707  0.21318  1.0000
  H   H55       1.0  0.19331  0.72526  0.20631  1.0000
  H   H56       1.0  0.20493  0.74145  0.16771  1.0000
  N   N28       1.0  0.13700  0.69661  0.27912  1.0000
  O   O27       1.0  0.12461  0.70366  0.31882  1.0000
  O   O28       1.0  0.13645  0.70046  0.19686  1.0000
  C   C83       1.0  0.32309  0.16388  0.35393  1.0000
  C   C84       1.0  0.31018  0.15291  0.31848  1.0000
  C   C85       1.0  0.29277  0.15829  0.31899  1.0000
  C   C86       1.0  0.28779  0.17444  0.35362  1.0000
  C   C87       1.0  0.27021  0.17951  0.34769  1.0000
  C   C88       1.0  0.26417  0.19120  0.28103  1.0000
  C   C89       1.0  0.24689  0.19683  0.28506  1.0000
  H   H57       1.0  0.24245  0.20505  0.23643  1.0000
  H   H58       1.0  0.28367  0.15043  0.29117  1.0000
  N   N29       1.0  0.27435  0.19710  0.21314  1.0000
  H   H59       1.0  0.28616  0.19335  0.20629  1.0000
  H   H60       1.0  0.26996  0.20498  0.16772  1.0000
  N   N30       1.0  0.31483  0.13704  0.27901  1.0000
  O   O29       1.0  0.30778  0.12464  0.31862  1.0000
  O   O30       1.0  0.31100  0.13650  0.19673  1.0000
  C   C90       1.0  0.68831  0.84758  0.35385  1.0000
  C   C91       1.0  0.70124  0.85856  0.31855  1.0000
  C   C92       1.0  0.71864  0.85316  0.31910  1.0000
  C   C93       1.0  0.72362  0.83701  0.35373  1.0000
  C   C94       1.0  0.74119  0.83193  0.34784  1.0000
  C   C95       1.0  0.74723  0.82026  0.28110  1.0000
  C   C96       1.0  0.76452  0.81462  0.28513  1.0000
  H   H61       1.0  0.76896  0.80643  0.23643  1.0000
  H   H62       1.0  0.72775  0.86103  0.29140  1.0000
  N   N31       1.0  0.73706  0.81437  0.21318  1.0000
  H   H63       1.0  0.72524  0.81812  0.20633  1.0000
  H   H64       1.0  0.74145  0.80650  0.16772  1.0000
  N   N32       1.0  0.69661  0.87444  0.27914  1.0000
  O   O31       1.0  0.70365  0.88682  0.31886  1.0000
  O   O32       1.0  0.70045  0.87499  0.19689  1.0000
  C   C97       1.0  0.38267  0.05715  0.30928  1.0000
  C   C98       1.0  0.39071  0.04074  0.31332  1.0000
  H   H65       1.0  0.38473  0.03056  0.28307  1.0000
  C   C99       1.0  0.37161  0.12366  0.34482  1.0000
  C   C100      1.0  0.38274  0.11745  0.27640  1.0000
  C   C101      1.0  0.38868  0.10021  0.27924  1.0000
  H   H66       1.0  0.39663  0.09599  0.22895  1.0000
  N   N33       1.0  0.36722  0.05858  0.26711  1.0000
  H   H67       1.0  0.36162  0.04866  0.24020  1.0000
  H   H68       1.0  0.36127  0.06949  0.26231  1.0000
  N   N34       1.0  0.38710  0.12840  0.20376  1.0000
  O   O33       1.0  0.38160  0.12261  0.13010  1.0000
  O   O34       1.0  0.40304  0.13049  0.19793  1.0000
  C   C102      1.0  0.62870  0.95433  0.30669  1.0000
  C   C103      1.0  0.62063  0.97072  0.31048  1.0000
  H   H69       1.0  0.62649  0.98088  0.27934  1.0000
  C   C104      1.0  0.63983  0.88784  0.34426  1.0000
  C   C105      1.0  0.62875  0.89404  0.27561  1.0000
  C   C106      1.0  0.62285  0.91130  0.27813  1.0000
  H   H70       1.0  0.61492  0.91551  0.22771  1.0000
  N   N35       1.0  0.64404  0.95286  0.26358  1.0000
  H   H71       1.0  0.64956  0.96275  0.23586  1.0000
  H   H72       1.0  0.65002  0.94196  0.25899  1.0000
  N   N36       1.0  0.62440  0.88306  0.20307  1.0000
  O   O35       1.0  0.62993  0.88881  0.12939  1.0000
  O   O36       1.0  0.60845  0.88100  0.19711  1.0000
  C   C107      1.0  0.95429  0.38267  0.30929  1.0000
  C   C108      1.0  0.97069  0.39072  0.31330  1.0000
  H   H73       1.0  0.98087  0.38474  0.28306  1.0000
  C   C109      1.0  0.88777  0.37162  0.34482  1.0000
  C   C110      1.0  0.89399  0.38274  0.27639  1.0000
  C   C111      1.0  0.91123  0.38869  0.27922  1.0000
  H   H74       1.0  0.91545  0.39663  0.22893  1.0000
  N   N37       1.0  0.95286  0.36723  0.26713  1.0000
  H   H75       1.0  0.96278  0.36163  0.24022  1.0000
  H   H76       1.0  0.94195  0.36127  0.26233  1.0000
  N   N38       1.0  0.88303  0.38710  0.20373  1.0000
  O   O37       1.0  0.88882  0.38160  0.13008  1.0000
  O   O38       1.0  0.88095  0.40304  0.19788  1.0000
  C   C112      1.0  0.05711  0.62871  0.30671  1.0000
  C   C113      1.0  0.04071  0.62064  0.31050  1.0000
  H   H77       1.0  0.03056  0.62651  0.27938  1.0000
  C   C114      1.0  0.12360  0.63984  0.34427  1.0000
  C   C115      1.0  0.11739  0.62876  0.27562  1.0000
  C   C116      1.0  0.10014  0.62286  0.27813  1.0000
  H   H78       1.0  0.09593  0.61493  0.22770  1.0000
  N   N39       1.0  0.05858  0.64406  0.26363  1.0000
  H   H79       1.0  0.04869  0.64958  0.23592  1.0000
  H   H80       1.0  0.06948  0.65003  0.25904  1.0000
  N   N40       1.0  0.12837  0.62442  0.20307  1.0000
  O   O39       1.0  0.12263  0.62994  0.12939  1.0000
  O   O40       1.0  0.13043  0.60847  0.19711  1.0000
  C   C117      1.0  0.60487  0.03766  0.33751  1.0000
  C   C118      1.0  0.59725  0.05212  0.29413  1.0000
  C   C119      1.0  0.60533  0.06843  0.29724  1.0000
  C   C120      1.0  0.62106  0.07112  0.34229  1.0000
  C   C121      1.0  0.62818  0.08820  0.34203  1.0000
  C   C122      1.0  0.63934  0.09432  0.27300  1.0000
  C   C123      1.0  0.64544  0.11151  0.27690  1.0000
  H   H81       1.0  0.65341  0.11582  0.22686  1.0000
  H   H82       1.0  0.59954  0.07856  0.26546  1.0000
  N   N41       1.0  0.64433  0.08424  0.20279  1.0000
  H   H83       1.0  0.64050  0.07243  0.19685  1.0000
  H   H84       1.0  0.65189  0.08858  0.15579  1.0000
  N   N42       1.0  0.58176  0.05021  0.24492  1.0000
  O   O41       1.0  0.56995  0.05943  0.27630  1.0000
  O   O42       1.0  0.58372  0.05361  0.16271  1.0000
  C   C124      1.0  0.40622  0.97396  0.33538  1.0000
  C   C125      1.0  0.41323  0.95985  0.28646  1.0000
  C   C126      1.0  0.40519  0.94351  0.28946  1.0000
  C   C127      1.0  0.39018  0.94044  0.34032  1.0000
  C   C128      1.0  0.38313  0.92333  0.34027  1.0000
  C   C129      1.0  0.37213  0.91707  0.27088  1.0000
  C   C130      1.0  0.36607  0.89987  0.27514  1.0000
  H   H85       1.0  0.35820  0.89547  0.22488  1.0000
  H   H86       1.0  0.41052  0.93362  0.25361  1.0000
  N   N43       1.0  0.36717  0.92706  0.20024  1.0000
  H   H87       1.0  0.37087  0.93891  0.19434  1.0000
  H   H88       1.0  0.35967  0.92264  0.15315  1.0000
  N   N44       1.0  0.42795  0.96225  0.23173  1.0000
  O   O43       1.0  0.44005  0.95253  0.25481  1.0000
  O   O44       1.0  0.42467  0.95972  0.14985  1.0000
  C   C131      1.0  0.03747  0.40624  0.33541  1.0000
  C   C132      1.0  0.05158  0.41325  0.28647  1.0000
  C   C133      1.0  0.06792  0.40521  0.28946  1.0000
  C   C134      1.0  0.07099  0.39020  0.34031  1.0000
  C   C135      1.0  0.08810  0.38315  0.34026  1.0000
  C   C136      1.0  0.09436  0.37216  0.27083  1.0000
  C   C137      1.0  0.11156  0.36610  0.27507  1.0000
  H   H89       1.0  0.11596  0.35824  0.22481  1.0000
  H   H90       1.0  0.07780  0.41055  0.25361  1.0000
  N   N45       1.0  0.08437  0.36721  0.20017  1.0000
  H   H91       1.0  0.07253  0.37090  0.19429  1.0000
  H   H92       1.0  0.08880  0.35971  0.15306  1.0000
  N   N46       1.0  0.04918  0.42797  0.23175  1.0000
  O   O45       1.0  0.05890  0.44007  0.25481  1.0000
  O   O46       1.0  0.05171  0.42469  0.14986  1.0000
  C   C138      1.0  0.97377  0.60489  0.33752  1.0000
  C   C139      1.0  0.95931  0.59727  0.29413  1.0000
  C   C140      1.0  0.94300  0.60536  0.29723  1.0000
  C   C141      1.0  0.94031  0.62108  0.34230  1.0000
  C   C142      1.0  0.92324  0.62820  0.34205  1.0000
  C   C143      1.0  0.91711  0.63936  0.27304  1.0000
  C   C144      1.0  0.89992  0.64547  0.27697  1.0000
  H   H93       1.0  0.89561  0.65343  0.22691  1.0000
  H   H94       1.0  0.93287  0.59956  0.26545  1.0000
  N   N47       1.0  0.92719  0.64436  0.20283  1.0000
  H   H95       1.0  0.93900  0.64053  0.19688  1.0000
  H   H96       1.0  0.92285  0.65193  0.15586  1.0000
  N   N48       1.0  0.96122  0.58179  0.24492  1.0000
  O   O47       1.0  0.95200  0.56997  0.27630  1.0000
  O   O48       1.0  0.95782  0.58374  0.16271  1.0000
  C   C145      1.0  0.48719  0.02053  0.31143  1.0000
  C   C146      1.0  0.46901  0.01964  0.31291  1.0000
  H   H97       1.0  0.46223  0.02961  0.28551  1.0000
  C   C147      1.0  0.55178  0.00594  0.34575  1.0000
  C   C148      1.0  0.54222  0.99926  0.27245  1.0000
  C   C149      1.0  0.52405  0.99971  0.27560  1.0000
  H   H98       1.0  0.51727  0.99503  0.22180  1.0000
  N   N49       1.0  0.49482  0.03465  0.27516  1.0000
  H   H99       1.0  0.48807  0.04406  0.25051  1.0000
  H   H100      1.0  0.50722  0.03588  0.27271  1.0000
  N   N50       1.0  0.55102  0.99290  0.19589  1.0000
  O   O49       1.0  0.54754  0.00155  0.12671  1.0000
  O   O50       1.0  0.54737  0.97745  0.18116  1.0000
  C   C150      1.0  0.99089  0.48721  0.31143  1.0000
  C   C151      1.0  0.99179  0.46903  0.31292  1.0000
  H   H101      1.0  0.98181  0.46224  0.28551  1.0000
  C   C152      1.0  0.00548  0.55180  0.34575  1.0000
  C   C153      1.0  0.01217  0.54224  0.27247  1.0000
  C   C154      1.0  0.01172  0.52406  0.27562  1.0000
  H   H102      1.0  0.01641  0.51729  0.22183  1.0000
  N   N51       1.0  0.97677  0.49484  0.27515  1.0000
  H   H103      1.0  0.96737  0.48808  0.25051  1.0000
  H   H104      1.0  0.97554  0.50723  0.27268  1.0000
  N   N52       1.0  0.01854  0.55103  0.19593  1.0000
  O   O51       1.0  0.00990  0.54756  0.12673  1.0000
  O   O52       1.0  0.03399  0.54739  0.18124  1.0000
  C   C155      1.0  0.27226  0.41064  0.34510  1.0000
  C   C156      1.0  0.26761  0.39396  0.31435  1.0000
  C   C157      1.0  0.25017  0.38868  0.31627  1.0000
  C   C158      1.0  0.23694  0.39951  0.34805  1.0000
  C   C159      1.0  0.21965  0.39319  0.34805  1.0000
  C   C160      1.0  0.20871  0.39405  0.27119  1.0000
  C   C161      1.0  0.19193  0.38699  0.27669  1.0000
  H   H105      1.0  0.18433  0.38698  0.22032  1.0000
  H   H106      1.0  0.24712  0.37667  0.29331  1.0000
  N   N53       1.0  0.21389  0.40117  0.19192  1.0000
  H   H107      1.0  0.22522  0.40618  0.18471  1.0000
  H   H108      1.0  0.20631  0.40161  0.13980  1.0000
  N   N54       1.0  0.28028  0.38280  0.27901  1.0000
  O   O53       1.0  0.28131  0.36912  0.32356  1.0000
  O   O54       1.0  0.27751  0.37921  0.19769  1.0000
  C   C162      1.0  0.73913  0.60082  0.34511  1.0000
  C   C163      1.0  0.74378  0.61749  0.31438  1.0000
  C   C164      1.0  0.76122  0.62277  0.31632  1.0000
  C   C165      1.0  0.77444  0.61194  0.34812  1.0000
  C   C166      1.0  0.79173  0.61826  0.34818  1.0000
  C   C167      1.0  0.80268  0.61741  0.27133  1.0000
  C   C168      1.0  0.81946  0.62447  0.27688  1.0000
  H   H109      1.0  0.82705  0.62452  0.22049  1.0000
  H   H110      1.0  0.76428  0.63479  0.29338  1.0000
  N   N55       1.0  0.79750  0.61031  0.19200  1.0000
  H   H111      1.0  0.78617  0.60530  0.18476  1.0000
  H   H112      1.0  0.80509  0.60988  0.13990  1.0000
  N   N56       1.0  0.73111  0.62865  0.27903  1.0000
  O   O55       1.0  0.73008  0.64233  0.32358  1.0000
  O   O56       1.0  0.73388  0.63224  0.19771  1.0000
  C   C169      1.0  0.60079  0.27230  0.34513  1.0000
  C   C170      1.0  0.61747  0.26765  0.31437  1.0000
  C   C171      1.0  0.62275  0.25021  0.31630  1.0000
  C   C172      1.0  0.61192  0.23699  0.34812  1.0000
  C   C173      1.0  0.61824  0.21970  0.34815  1.0000
  C   C174      1.0  0.61738  0.20876  0.27129  1.0000
  C   C175      1.0  0.62445  0.19198  0.27678  1.0000
  H   H113      1.0  0.62447  0.18438  0.22042  1.0000
  H   H114      1.0  0.63476  0.24716  0.29334  1.0000
  N   N57       1.0  0.61025  0.21393  0.19202  1.0000
  H   H115      1.0  0.60524  0.22525  0.18482  1.0000
  H   H116      1.0  0.60982  0.20634  0.13991  1.0000
  N   N58       1.0  0.62862  0.28032  0.27899  1.0000
  O   O57       1.0  0.64230  0.28136  0.32352  1.0000
  O   O58       1.0  0.63221  0.27755  0.19767  1.0000
  C   C176      1.0  0.41061  0.73917  0.34510  1.0000
  C   C177      1.0  0.39394  0.74383  0.31437  1.0000
  C   C178      1.0  0.38866  0.76127  0.31629  1.0000
  C   C179      1.0  0.39949  0.77449  0.34807  1.0000
  C   C180      1.0  0.39318  0.79178  0.34810  1.0000
  C   C181      1.0  0.39402  0.80272  0.27121  1.0000
  C   C182      1.0  0.38697  0.81951  0.27675  1.0000
  H   H117      1.0  0.38692  0.82709  0.22032  1.0000
  H   H118      1.0  0.37665  0.76432  0.29336  1.0000
  N   N59       1.0  0.40111  0.79753  0.19188  1.0000
  H   H119      1.0  0.40610  0.78620  0.18464  1.0000
  H   H120      1.0  0.40153  0.80512  0.13975  1.0000
  N   N60       1.0  0.38277  0.73115  0.27905  1.0000
  O   O59       1.0  0.36909  0.73013  0.32362  1.0000
  O   O60       1.0  0.37918  0.73392  0.19773  1.0000
  C   C183      1.0  0.76926  0.41649  0.30849  1.0000
  C   C184      1.0  0.75179  0.42163  0.31091  1.0000
  H   H121      1.0  0.74874  0.43349  0.28608  1.0000
  C   C185      1.0  0.82508  0.37960  0.33381  1.0000
  C   C186      1.0  0.81406  0.37864  0.25785  1.0000
  C   C187      1.0  0.79740  0.38591  0.26224  1.0000
  H   H122      1.0  0.78960  0.38503  0.20687  1.0000
  N   N61       1.0  0.78114  0.42759  0.27481  1.0000
  H   H123      1.0  0.77786  0.43888  0.25252  1.0000
  H   H124      1.0  0.79326  0.42474  0.27233  1.0000
  N   N62       1.0  0.81991  0.37029  0.17877  1.0000
  O   O61       1.0  0.82022  0.38040  0.11278  1.0000
  O   O62       1.0  0.81062  0.35765  0.15921  1.0000
  C   C188      1.0  0.24212  0.59495  0.30853  1.0000
  C   C189      1.0  0.25959  0.58982  0.31097  1.0000
  H   H125      1.0  0.26266  0.57795  0.28613  1.0000
  C   C190      1.0  0.18630  0.63183  0.33369  1.0000
  C   C191      1.0  0.19732  0.63278  0.25772  1.0000
  C   C192      1.0  0.21398  0.62551  0.26216  1.0000
  H   H126      1.0  0.22178  0.62639  0.20682  1.0000
  N   N63       1.0  0.23025  0.58384  0.27485  1.0000
  H   H127      1.0  0.23354  0.57255  0.25259  1.0000
  H   H128      1.0  0.21813  0.58669  0.27237  1.0000
  N   N64       1.0  0.19147  0.64113  0.17865  1.0000
  O   O63       1.0  0.19117  0.63102  0.11266  1.0000
  O   O64       1.0  0.20076  0.65378  0.15911  1.0000
  C   C193      1.0  0.41647  0.24216  0.30846  1.0000
  C   C194      1.0  0.42161  0.25964  0.31088  1.0000
  H   H129      1.0  0.43347  0.26270  0.28604  1.0000
  C   C195      1.0  0.37958  0.18636  0.33386  1.0000
  C   C196      1.0  0.37862  0.19737  0.25785  1.0000
  C   C197      1.0  0.38589  0.21402  0.26224  1.0000
  H   H130      1.0  0.38501  0.22183  0.20687  1.0000
  N   N65       1.0  0.42758  0.23029  0.27477  1.0000
  H   H131      1.0  0.43886  0.23358  0.25248  1.0000
  H   H132      1.0  0.42472  0.21817  0.27230  1.0000
  N   N66       1.0  0.37027  0.19151  0.17880  1.0000
  O   O65       1.0  0.38037  0.19120  0.11280  1.0000
  O   O66       1.0  0.35762  0.20080  0.15923  1.0000
  C   C198      1.0  0.59494  0.76931  0.30853  1.0000
  C   C199      1.0  0.58980  0.75184  0.31098  1.0000
  H   H133      1.0  0.57793  0.74878  0.28615  1.0000
  C   C200      1.0  0.63181  0.82513  0.33367  1.0000
  C   C201      1.0  0.63275  0.81412  0.25771  1.0000
  C   C202      1.0  0.62548  0.79746  0.26214  1.0000
  H   H134      1.0  0.62636  0.78965  0.20678  1.0000
  N   N67       1.0  0.58383  0.78118  0.27487  1.0000
  H   H135      1.0  0.57254  0.77790  0.25261  1.0000
  H   H136      1.0  0.58668  0.79330  0.27239  1.0000
  N   N68       1.0  0.64109  0.81997  0.17861  1.0000
  O   O67       1.0  0.63098  0.82028  0.11265  1.0000
  O   O68       1.0  0.65374  0.81068  0.15902  1.0000
  C   C203      1.0  0.29702  0.48813  0.31212  1.0000
  C   C204      1.0  0.29680  0.46991  0.31194  1.0000
  H   H137      1.0  0.28595  0.46399  0.28858  1.0000
  C   C205      1.0  0.31196  0.55222  0.35050  1.0000
  C   C206      1.0  0.32019  0.54307  0.27997  1.0000
  C   C207      1.0  0.32045  0.52482  0.28135  1.0000
  H   H138      1.0  0.32595  0.51846  0.22833  1.0000
  N   N69       1.0  0.28289  0.49667  0.28190  1.0000
  H   H139      1.0  0.27281  0.49055  0.26024  1.0000
  H   H140      1.0  0.28245  0.50911  0.27922  1.0000
  N   N70       1.0  0.32702  0.55234  0.20614  1.0000
  O   O69       1.0  0.31935  0.54870  0.13408  1.0000
  O   O70       1.0  0.34275  0.54938  0.19612  1.0000
  C   C208      1.0  0.71438  0.52333  0.31207  1.0000
  C   C209      1.0  0.71459  0.54155  0.31191  1.0000
  H   H141      1.0  0.72544  0.54747  0.28855  1.0000
  C   C210      1.0  0.69943  0.45924  0.35043  1.0000
  C   C211      1.0  0.69120  0.46839  0.27991  1.0000
  C   C212      1.0  0.69094  0.48663  0.28130  1.0000
  H   H142      1.0  0.68545  0.49300  0.22827  1.0000
  N   N71       1.0  0.72851  0.51479  0.28185  1.0000
  H   H143      1.0  0.73858  0.52092  0.26018  1.0000
  H   H144      1.0  0.72894  0.50235  0.27916  1.0000
  N   N72       1.0  0.68438  0.45912  0.20607  1.0000
  O   O71       1.0  0.69206  0.46276  0.13403  1.0000
  O   O72       1.0  0.66865  0.46208  0.19601  1.0000
  C   C213      1.0  0.52330  0.29706  0.31212  1.0000
  C   C214      1.0  0.54152  0.29684  0.31196  1.0000
  H   H145      1.0  0.54744  0.28599  0.28861  1.0000
  C   C215      1.0  0.45921  0.31199  0.35042  1.0000
  C   C216      1.0  0.46836  0.32024  0.27994  1.0000
  C   C217      1.0  0.48660  0.32050  0.28135  1.0000
  H   H146      1.0  0.49297  0.32600  0.22836  1.0000
  N   N73       1.0  0.51475  0.28292  0.28191  1.0000
  H   H147      1.0  0.52088  0.27285  0.26026  1.0000
  H   H148      1.0  0.50231  0.28249  0.27922  1.0000
  N   N74       1.0  0.45909  0.32708  0.20614  1.0000
  O   O73       1.0  0.46274  0.31941  0.13405  1.0000
  O   O74       1.0  0.46205  0.34281  0.19618  1.0000
  C   C218      1.0  0.48810  0.71442  0.31212  1.0000
  C   C219      1.0  0.46988  0.71464  0.31197  1.0000
  H   H149      1.0  0.46396  0.72548  0.28862  1.0000
  C   C220      1.0  0.55219  0.69948  0.35046  1.0000
  C   C221      1.0  0.54304  0.69124  0.27996  1.0000
  C   C222      1.0  0.52480  0.69098  0.28134  1.0000
  H   H150      1.0  0.51843  0.68548  0.22831  1.0000
  N   N75       1.0  0.49664  0.72855  0.28191  1.0000
  H   H151      1.0  0.49052  0.73863  0.26026  1.0000
  H   H152      1.0  0.50908  0.72899  0.27921  1.0000
  N   N76       1.0  0.55231  0.68441  0.20613  1.0000
  O   O75       1.0  0.54867  0.69209  0.13408  1.0000
  O   O76       1.0  0.54936  0.66868  0.19609  1.0000
  C   C223      1.0  0.33423  0.39987  0.34541  1.0000
  C   C224      1.0  0.35131  0.40375  0.31776  1.0000
  C   C225      1.0  0.36419  0.39078  0.31754  1.0000
  C   C226      1.0  0.36081  0.37369  0.34427  1.0000
  C   C227      1.0  0.37428  0.36103  0.33849  1.0000
  C   C228      1.0  0.37532  0.34882  0.26707  1.0000
  C   C229      1.0  0.38814  0.33584  0.27009  1.0000
  H   H153      1.0  0.38869  0.32704  0.21887  1.0000
  H   H154      1.0  0.37626  0.39389  0.29571  1.0000
  N   N77       1.0  0.36437  0.34913  0.19555  1.0000
  H   H155      1.0  0.35559  0.35790  0.18927  1.0000
  H   H156      1.0  0.36527  0.34080  0.14689  1.0000
  N   N78       1.0  0.35537  0.42048  0.28732  1.0000
  O   O77       1.0  0.36711  0.42710  0.33386  1.0000
  O   O78       1.0  0.35989  0.42046  0.20598  1.0000
  C   C230      1.0  0.67716  0.61159  0.34538  1.0000
  C   C231      1.0  0.66008  0.60771  0.31777  1.0000
  C   C232      1.0  0.64721  0.62069  0.31756  1.0000
  C   C233      1.0  0.65059  0.63777  0.34429  1.0000
  C   C234      1.0  0.63712  0.65044  0.33853  1.0000
  C   C235      1.0  0.63607  0.66264  0.26707  1.0000
  C   C236      1.0  0.62326  0.67562  0.27011  1.0000
  H   H157      1.0  0.62269  0.68442  0.21886  1.0000
  H   H158      1.0  0.63513  0.61758  0.29576  1.0000
  N   N79       1.0  0.64702  0.66232  0.19552  1.0000
  H   H159      1.0  0.65579  0.65355  0.18924  1.0000
  H   H160      1.0  0.64611  0.67065  0.14684  1.0000
  N   N80       1.0  0.65602  0.59099  0.28737  1.0000
  O   O79       1.0  0.64428  0.58437  0.33394  1.0000
  O   O80       1.0  0.65149  0.59099  0.20604  1.0000
  C   C237      1.0  0.61155  0.33427  0.34541  1.0000
  C   C238      1.0  0.60768  0.35135  0.31774  1.0000
  C   C239      1.0  0.62065  0.36422  0.31752  1.0000
  C   C240      1.0  0.63774  0.36084  0.34427  1.0000
  C   C241      1.0  0.65040  0.37431  0.33849  1.0000
  C   C242      1.0  0.66260  0.37536  0.26702  1.0000
  C   C243      1.0  0.67558  0.38818  0.27003  1.0000
  H   H161      1.0  0.68437  0.38874  0.21879  1.0000
  H   H162      1.0  0.61755  0.37629  0.29567  1.0000
  N   N81       1.0  0.66228  0.36441  0.19547  1.0000
  H   H163      1.0  0.65351  0.35564  0.18921  1.0000
  H   H164      1.0  0.67061  0.36533  0.14677  1.0000
  N   N82       1.0  0.59096  0.35541  0.28729  1.0000
  O   O81       1.0  0.58433  0.36714  0.33380  1.0000
  O   O82       1.0  0.59097  0.35992  0.20593  1.0000
  C   C244      1.0  0.39984  0.67720  0.34538  1.0000
  C   C245      1.0  0.40372  0.66012  0.31779  1.0000
  C   C246      1.0  0.39075  0.64725  0.31758  1.0000
  C   C247      1.0  0.37366  0.65063  0.34429  1.0000
  C   C248      1.0  0.36099  0.63716  0.33853  1.0000
  C   C249      1.0  0.34878  0.63612  0.26711  1.0000
  C   C250      1.0  0.33580  0.62330  0.27015  1.0000
  H   H165      1.0  0.32700  0.62274  0.21893  1.0000
  H   H166      1.0  0.39385  0.63517  0.29580  1.0000
  N   N83       1.0  0.34909  0.64707  0.19559  1.0000
  H   H167      1.0  0.35786  0.65584  0.18930  1.0000
  H   H168      1.0  0.34076  0.64616  0.14693  1.0000
  N   N84       1.0  0.42045  0.65606  0.28741  1.0000
  O   O83       1.0  0.42706  0.64432  0.33400  1.0000
  O   O84       1.0  0.42044  0.65153  0.20608  1.0000
  C   C251      1.0  0.06744  0.09173  0.33644  1.0000
  N   N85       1.0  0.08009  0.10367  0.33880  1.0000
  C   C252      1.0  0.09682  0.09885  0.34628  1.0000
  N   N86       1.0  0.10067  0.08183  0.35259  1.0000
  C   C253      1.0  0.08815  0.06965  0.35211  1.0000
  N   N87       1.0  0.07167  0.07495  0.34319  1.0000
  C   C254      1.0  0.94400  0.91968  0.33642  1.0000
  N   N88       1.0  0.93134  0.90774  0.33879  1.0000
  C   C255      1.0  0.91461  0.91258  0.34627  1.0000
  N   N89       1.0  0.91078  0.92959  0.35257  1.0000
  C   C256      1.0  0.92329  0.94177  0.35206  1.0000
  N   N90       1.0  0.93977  0.93647  0.34313  1.0000
  C   C257      1.0  0.91968  0.06743  0.33656  1.0000
  N   N91       1.0  0.90775  0.08009  0.33886  1.0000
  C   C258      1.0  0.91258  0.09682  0.34634  1.0000
  N   N92       1.0  0.92960  0.10065  0.35265  1.0000
  C   C259      1.0  0.94178  0.08814  0.35217  1.0000
  N   N93       1.0  0.93647  0.07166  0.34326  1.0000
  C   C260      1.0  0.09174  0.94399  0.33663  1.0000
  N   N94       1.0  0.10368  0.93133  0.33892  1.0000
  C   C261      1.0  0.09885  0.91460  0.34633  1.0000
  N   N95       1.0  0.08183  0.91076  0.35259  1.0000
  C   C262      1.0  0.06965  0.92327  0.35211  1.0000
  N   N96       1.0  0.07495  0.93976  0.34328  1.0000
  C   C263      1.0  0.21797  0.19623  0.34913  1.0000
  N   N97       1.0  0.21321  0.21303  0.34385  1.0000
  C   C264      1.0  0.19636  0.21758  0.33780  1.0000
  N   N98       1.0  0.18436  0.20493  0.33700  1.0000
  C   C265      1.0  0.18854  0.18800  0.34165  1.0000
  N   N99       1.0  0.20549  0.18407  0.34802  1.0000
  C   C266      1.0  0.79343  0.81523  0.34915  1.0000
  N   N100      1.0  0.79819  0.79844  0.34385  1.0000
  C   C267      1.0  0.81504  0.79388  0.33781  1.0000
  N   N101      1.0  0.82704  0.80653  0.33702  1.0000
  C   C268      1.0  0.82286  0.82346  0.34170  1.0000
  N   N102      1.0  0.80592  0.82739  0.34807  1.0000
  C   C269      1.0  0.81522  0.21798  0.34906  1.0000
  N   N103      1.0  0.79842  0.21322  0.34381  1.0000
  C   C270      1.0  0.79387  0.19637  0.33781  1.0000
  N   N104      1.0  0.80652  0.18437  0.33701  1.0000
  C   C271      1.0  0.82345  0.18855  0.34165  1.0000
  N   N105      1.0  0.82738  0.20550  0.34799  1.0000
  C   C272      1.0  0.19622  0.79344  0.34913  1.0000
  N   N106      1.0  0.21301  0.79821  0.34385  1.0000
  C   C273      1.0  0.21757  0.81505  0.33781  1.0000
  N   N107      1.0  0.20492  0.82705  0.33700  1.0000
  C   C274      1.0  0.18799  0.82287  0.34167  1.0000
  N   N108      1.0  0.18405  0.80592  0.34805  1.0000
  C   C275      1.0  0.41467  0.99042  0.34017  1.0000
  N   N109      1.0  0.40638  0.00595  0.34522  1.0000
  C   C276      1.0  0.41501  0.02129  0.35097  1.0000
  N   N110      1.0  0.43246  0.02036  0.35082  1.0000
  C   C277      1.0  0.44151  0.00547  0.34767  1.0000
  N   N111      1.0  0.43214  0.99081  0.34248  1.0000
  C   C278      1.0  0.59652  0.02111  0.34170  1.0000
  N   N112      1.0  0.60488  0.00557  0.34514  1.0000
  C   C279      1.0  0.59633  0.99014  0.34892  1.0000
  N   N113      1.0  0.57886  0.99087  0.34751  1.0000
  C   C280      1.0  0.56998  0.00581  0.34598  1.0000
  N   N114      1.0  0.57905  0.02063  0.34390  1.0000
  C   C281      1.0  0.02101  0.41469  0.34019  1.0000
  N   N115      1.0  0.00548  0.40640  0.34522  1.0000
  C   C282      1.0  0.99014  0.41502  0.35092  1.0000
  N   N116      1.0  0.99107  0.43247  0.35080  1.0000
  C   C283      1.0  0.00596  0.44152  0.34766  1.0000
  N   N117      1.0  0.02062  0.43216  0.34249  1.0000
  C   C284      1.0  0.99032  0.59654  0.34173  1.0000
  N   N118      1.0  0.00586  0.60489  0.34514  1.0000
  C   C285      1.0  0.02129  0.59635  0.34892  1.0000
  N   N119      1.0  0.02056  0.57888  0.34751  1.0000
  C   C286      1.0  0.00562  0.57000  0.34598  1.0000
  N   N120      1.0  0.99080  0.57907  0.34392  1.0000
  C   C287      1.0  0.32024  0.41219  0.34491  1.0000
  N   N121      1.0  0.32236  0.42967  0.34375  1.0000
  C   C288      1.0  0.30899  0.44111  0.34290  1.0000
  N   N122      1.0  0.29297  0.43410  0.34354  1.0000
  C   C289      1.0  0.28965  0.41697  0.34447  1.0000
  N   N123      1.0  0.30365  0.40652  0.34523  1.0000
  C   C290      1.0  0.69115  0.59927  0.34489  1.0000
  N   N124      1.0  0.68903  0.58179  0.34373  1.0000
  C   C291      1.0  0.70239  0.57035  0.34289  1.0000
  N   N125      1.0  0.71842  0.57736  0.34354  1.0000
  C   C292      1.0  0.72174  0.59449  0.34449  1.0000
  N   N126      1.0  0.70774  0.60494  0.34523  1.0000
  C   C293      1.0  0.59924  0.32028  0.34491  1.0000
  N   N127      1.0  0.58176  0.32240  0.34375  1.0000
  C   C294      1.0  0.57032  0.30903  0.34292  1.0000
  N   N128      1.0  0.57733  0.29301  0.34356  1.0000
  C   C295      1.0  0.59446  0.28969  0.34450  1.0000
  N   N129      1.0  0.60491  0.30369  0.34525  1.0000
  C   C296      1.0  0.41216  0.69119  0.34489  1.0000
  N   N130      1.0  0.42964  0.68907  0.34375  1.0000
  C   C297      1.0  0.44108  0.70244  0.34291  1.0000
  N   N131      1.0  0.43407  0.71846  0.34355  1.0000
  C   C298      1.0  0.41694  0.72178  0.34448  1.0000
  N   N132      1.0  0.40649  0.70778  0.34522  1.0000
  C   C299      1.0  0.69065  0.41239  0.34171  1.0000
  N   N133      1.0  0.68810  0.42974  0.34535  1.0000
  C   C300      1.0  0.70153  0.44100  0.34861  1.0000
  N   N134      1.0  0.71770  0.43439  0.34852  1.0000
  C   C301      1.0  0.72104  0.41723  0.34483  1.0000
  N   N135      1.0  0.70715  0.40658  0.34109  1.0000
  C   C302      1.0  0.32075  0.59907  0.34178  1.0000
  N   N136      1.0  0.32329  0.58172  0.34542  1.0000
  C   C303      1.0  0.30986  0.57046  0.34866  1.0000
  N   N137      1.0  0.29369  0.57707  0.34856  1.0000
  C   C304      1.0  0.29035  0.59423  0.34486  1.0000
  N   N138      1.0  0.30424  0.60488  0.34114  1.0000
  C   C305      1.0  0.41236  0.32078  0.34174  1.0000
  N   N139      1.0  0.42971  0.32333  0.34536  1.0000
  C   C306      1.0  0.44097  0.30990  0.34859  1.0000
  N   N140      1.0  0.43436  0.29373  0.34849  1.0000
  C   C307      1.0  0.41720  0.29039  0.34480  1.0000
  N   N141      1.0  0.40655  0.30428  0.34109  1.0000
  C   C308      1.0  0.59904  0.69069  0.34178  1.0000
  N   N142      1.0  0.58169  0.68814  0.34540  1.0000
  C   C309      1.0  0.57043  0.70158  0.34865  1.0000
  N   N143      1.0  0.57704  0.71774  0.34856  1.0000
  C   C310      1.0  0.59421  0.72108  0.34487  1.0000
  N   N144      1.0  0.60486  0.70720  0.34115  1.0000
  C   C311      1.0  0.17051  0.36902  0.35162  1.0000
  N   N145      1.0  0.15415  0.37526  0.35054  1.0000
  C   C312      1.0  0.14029  0.36451  0.34442  1.0000
  N   N146      1.0  0.14332  0.34726  0.33872  1.0000
  C   C313      1.0  0.15950  0.34053  0.33955  1.0000
  N   N147      1.0  0.17270  0.35183  0.34630  1.0000
  C   C314      1.0  0.84086  0.64245  0.35184  1.0000
  N   N148      1.0  0.85721  0.63621  0.35108  1.0000
  C   C315      1.0  0.87108  0.64695  0.34511  1.0000
  N   N149      1.0  0.86805  0.66420  0.33926  1.0000
  C   C316      1.0  0.85187  0.67094  0.33979  1.0000
  N   N150      1.0  0.83867  0.65964  0.34642  1.0000
  C   C317      1.0  0.64243  0.17058  0.35174  1.0000
  N   N151      1.0  0.63619  0.15422  0.35102  1.0000
  C   C318      1.0  0.64693  0.14036  0.34507  1.0000
  N   N152      1.0  0.66418  0.14337  0.33923  1.0000
  C   C319      1.0  0.67092  0.15955  0.33973  1.0000
  N   N153      1.0  0.65963  0.17276  0.34633  1.0000
  C   C320      1.0  0.36901  0.84092  0.35161  1.0000
  N   N154      1.0  0.37524  0.85728  0.35056  1.0000
  C   C321      1.0  0.36449  0.87113  0.34445  1.0000
  N   N155      1.0  0.34724  0.86810  0.33876  1.0000
  C   C322      1.0  0.34051  0.85192  0.33960  1.0000
  N   N156      1.0  0.35182  0.83872  0.34634  1.0000
  C   C323      1.0  0.84030  0.36957  0.33813  1.0000
  N   N157      1.0  0.85665  0.37586  0.33914  1.0000
  C   C324      1.0  0.87054  0.36515  0.34508  1.0000
  N   N158      1.0  0.86756  0.34789  0.35064  1.0000
  C   C325      1.0  0.85140  0.34110  0.34987  1.0000
  N   N159      1.0  0.83817  0.35237  0.34330  1.0000
  C   C326      1.0  0.17108  0.64186  0.33806  1.0000
  N   N160      1.0  0.15473  0.63558  0.33888  1.0000
  C   C327      1.0  0.14084  0.64629  0.34476  1.0000
  N   N161      1.0  0.14382  0.66355  0.35041  1.0000
  C   C328      1.0  0.15999  0.67033  0.34978  1.0000
  N   N162      1.0  0.17322  0.65906  0.34328  1.0000
  C   C329      1.0  0.36956  0.17113  0.33820  1.0000
  N   N163      1.0  0.37585  0.15479  0.33917  1.0000
  C   C330      1.0  0.36514  0.14089  0.34508  1.0000
  N   N164      1.0  0.34788  0.14387  0.35065  1.0000
  C   C331      1.0  0.34109  0.16002  0.34988  1.0000
  N   N165      1.0  0.35235  0.17326  0.34334  1.0000
  C   C332      1.0  0.64184  0.84036  0.33808  1.0000
  N   N166      1.0  0.63557  0.85670  0.33887  1.0000
  C   C333      1.0  0.64628  0.87059  0.34476  1.0000
  N   N167      1.0  0.66354  0.86761  0.35040  1.0000
  C   C334      1.0  0.67032  0.85145  0.34977  1.0000
  N   N168      1.0  0.65904  0.83822  0.34328  1.0000
  C   C335      1.0  0.14547  0.16687  0.37612  1.0000
  C   C336      1.0  0.15897  0.17902  0.37376  1.0000
  H   H169      1.0  0.15659  0.19108  0.39815  1.0000
  C   C337      1.0  0.10998  0.11138  0.34619  1.0000
  C   C338      1.0  0.12315  0.11152  0.41213  1.0000
  C   C339      1.0  0.13587  0.12445  0.40868  1.0000
  H   H170      1.0  0.14515  0.12468  0.45759  1.0000
  N   N169      1.0  0.12996  0.17174  0.40985  1.0000
  H   H171      1.0  0.12802  0.18333  0.43211  1.0000
  H   H172      1.0  0.12040  0.16379  0.41441  1.0000
  N   N170      1.0  0.12292  0.09931  0.48291  1.0000
  O   O85       1.0  0.12115  0.10642  0.55841  1.0000
  O   O86       1.0  0.13639  0.09046  0.48386  1.0000
  C   C340      1.0  0.86594  0.84457  0.37617  1.0000
  C   C341      1.0  0.85244  0.83242  0.37379  1.0000
  H   H173      1.0  0.85482  0.82036  0.39820  1.0000
  C   C342      1.0  0.90145  0.90005  0.34620  1.0000
  C   C343      1.0  0.88828  0.89992  0.41215  1.0000
  C   C344      1.0  0.87555  0.88699  0.40871  1.0000
  H   H174      1.0  0.86628  0.88677  0.45763  1.0000
  N   N171      1.0  0.88145  0.83970  0.40989  1.0000
  H   H175      1.0  0.88338  0.82810  0.43215  1.0000
  H   H176      1.0  0.89101  0.84764  0.41445  1.0000
  N   N172      1.0  0.88852  0.91212  0.48292  1.0000
  O   O87       1.0  0.89029  0.90501  0.55842  1.0000
  O   O88       1.0  0.87505  0.92099  0.48387  1.0000
  C   C345      1.0  0.84457  0.14548  0.37613  1.0000
  C   C346      1.0  0.83242  0.15898  0.37377  1.0000
  H   H177      1.0  0.82036  0.15660  0.39817  1.0000
  C   C347      1.0  0.90005  0.10997  0.34623  1.0000
  C   C348      1.0  0.89992  0.12314  0.41217  1.0000
  C   C349      1.0  0.88699  0.13587  0.40870  1.0000
  H   H178      1.0  0.88676  0.14515  0.45761  1.0000
  N   N173      1.0  0.83970  0.12997  0.40987  1.0000
  H   H179      1.0  0.82811  0.12803  0.43214  1.0000
  H   H180      1.0  0.84764  0.12041  0.41442  1.0000
  N   N174      1.0  0.91212  0.12291  0.48295  1.0000
  O   O89       1.0  0.90500  0.12115  0.55845  1.0000
  O   O90       1.0  0.92098  0.13639  0.48390  1.0000
  C   C350      1.0  0.16687  0.86594  0.37613  1.0000
  C   C351      1.0  0.17902  0.85245  0.37376  1.0000
  H   H181      1.0  0.19107  0.85483  0.39816  1.0000
  C   C352      1.0  0.11138  0.90145  0.34623  1.0000
  C   C353      1.0  0.11152  0.88828  0.41219  1.0000
  C   C354      1.0  0.12444  0.87555  0.40873  1.0000
  H   H182      1.0  0.12468  0.86628  0.45767  1.0000
  N   N175      1.0  0.17173  0.88146  0.40986  1.0000
  H   H183      1.0  0.18333  0.88339  0.43211  1.0000
  H   H184      1.0  0.16379  0.89102  0.41442  1.0000
  N   N176      1.0  0.09932  0.88852  0.48299  1.0000
  O   O91       1.0  0.10644  0.89029  0.55847  1.0000
  O   O92       1.0  0.09046  0.87505  0.48398  1.0000
  C   C355      1.0  0.09173  0.05180  0.35762  1.0000
  C   C356      1.0  0.08060  0.04030  0.40362  1.0000
  C   C357      1.0  0.08388  0.02249  0.39993  1.0000
  C   C358      1.0  0.09794  0.01582  0.35128  1.0000
  C   C359      1.0  0.09915  0.99769  0.34448  1.0000
  C   C360      1.0  0.10536  0.98726  0.41612  1.0000
  C   C361      1.0  0.10387  0.96921  0.40821  1.0000
  H   H185      1.0  0.10768  0.96162  0.46095  1.0000
  H   H186      1.0  0.07558  0.01430  0.43188  1.0000
  N   N177      1.0  0.11234  0.99397  0.49251  1.0000
  H   H187      1.0  0.11381  0.00625  0.50052  1.0000
  H   H188      1.0  0.11647  0.98662  0.54094  1.0000
  N   N178      1.0  0.06647  0.04659  0.45399  1.0000
  O   O93       1.0  0.05244  0.04104  0.42399  1.0000
  O   O94       1.0  0.06766  0.04278  0.53609  1.0000
  C   C362      1.0  0.91972  0.95962  0.35756  1.0000
  C   C363      1.0  0.93085  0.97111  0.40356  1.0000
  C   C364      1.0  0.92757  0.98892  0.39990  1.0000
  C   C365      1.0  0.91351  0.99560  0.35137  1.0000
  C   C366      1.0  0.91232  0.01374  0.34451  1.0000
  C   C367      1.0  0.90609  0.02417  0.41610  1.0000
  C   C368      1.0  0.90755  0.04222  0.40806  1.0000
  H   H189      1.0  0.90377  0.04981  0.46087  1.0000
  H   H190      1.0  0.93587  0.99711  0.43187  1.0000
  N   N179      1.0  0.89913  0.01747  0.49256  1.0000
  H   H191      1.0  0.89769  0.00518  0.50066  1.0000
  H   H192      1.0  0.89499  0.02483  0.54094  1.0000
  N   N180      1.0  0.94499  0.96483  0.45389  1.0000
  O   O95       1.0  0.95902  0.97037  0.42388  1.0000
  O   O96       1.0  0.94381  0.96863  0.53601  1.0000
  C   C369      1.0  0.95962  0.09171  0.35765  1.0000
  C   C370      1.0  0.97113  0.08058  0.40363  1.0000
  C   C371      1.0  0.98893  0.08386  0.39991  1.0000
  C   C372      1.0  0.99561  0.09792  0.35126  1.0000
  C   C373      1.0  0.01374  0.09913  0.34443  1.0000
  C   C374      1.0  0.02417  0.10534  0.41605  1.0000
  C   C375      1.0  0.04222  0.10385  0.40809  1.0000
  H   H193      1.0  0.04982  0.10766  0.46081  1.0000
  H   H194      1.0  0.99713  0.07556  0.43185  1.0000
  N   N181      1.0  0.01747  0.11232  0.49246  1.0000
  H   H195      1.0  0.00518  0.11378  0.50050  1.0000
  H   H196      1.0  0.02483  0.11645  0.54087  1.0000
  N   N182      1.0  0.96484  0.06645  0.45401  1.0000
  O   O97       1.0  0.97038  0.05242  0.42400  1.0000
  O   O98       1.0  0.96865  0.06764  0.53611  1.0000
  C   C376      1.0  0.05180  0.91970  0.35760  1.0000
  C   C377      1.0  0.04031  0.93082  0.40364  1.0000
  C   C378      1.0  0.02250  0.92754  0.39996  1.0000
  C   C379      1.0  0.01582  0.91348  0.35135  1.0000
  C   C380      1.0  0.99769  0.91230  0.34446  1.0000
  C   C381      1.0  0.98725  0.90606  0.41601  1.0000
  C   C382      1.0  0.96920  0.90753  0.40797  1.0000
  H   H197      1.0  0.96160  0.90375  0.46074  1.0000
  H   H198      1.0  0.01431  0.93584  0.43196  1.0000
  N   N183      1.0  0.99395  0.89909  0.49245  1.0000
  H   H199      1.0  0.00623  0.89765  0.50057  1.0000
  H   H200      1.0  0.98658  0.89494  0.54081  1.0000
  N   N184      1.0  0.04659  0.94495  0.45404  1.0000
  O   O99       1.0  0.04105  0.95899  0.42407  1.0000
  O   O100      1.0  0.04279  0.94376  0.53615  1.0000
  C   C383      1.0  0.16344  0.32255  0.33529  1.0000
  C   C384      1.0  0.15254  0.30957  0.37080  1.0000
  C   C385      1.0  0.15801  0.29219  0.37011  1.0000
  C   C386      1.0  0.17416  0.28729  0.33524  1.0000
  C   C387      1.0  0.17931  0.26974  0.34084  1.0000
  C   C388      1.0  0.19110  0.26371  0.40707  1.0000
  C   C389      1.0  0.19680  0.24645  0.40263  1.0000
  H   H201      1.0  0.20510  0.24203  0.45092  1.0000
  H   H202      1.0  0.15020  0.28305  0.39795  1.0000
  N   N185      1.0  0.19704  0.27389  0.47488  1.0000
  H   H203      1.0  0.19325  0.28568  0.48199  1.0000
  H   H204      1.0  0.20499  0.26951  0.51999  1.0000
  N   N186      1.0  0.13667  0.31414  0.41050  1.0000
  O   O101      1.0  0.12429  0.30704  0.37101  1.0000
  O   O102      1.0  0.13619  0.31029  0.49276  1.0000
  C   C390      1.0  0.84794  0.68892  0.33547  1.0000
  C   C391      1.0  0.85884  0.70189  0.37089  1.0000
  C   C392      1.0  0.85338  0.71927  0.37014  1.0000
  C   C393      1.0  0.83723  0.72417  0.33521  1.0000
  C   C394      1.0  0.83208  0.74172  0.34077  1.0000
  C   C395      1.0  0.82030  0.74775  0.40704  1.0000
  C   C396      1.0  0.81459  0.76501  0.40259  1.0000
  H   H205      1.0  0.80631  0.76943  0.45094  1.0000
  H   H206      1.0  0.86119  0.72842  0.39793  1.0000
  N   N187      1.0  0.81437  0.73758  0.47488  1.0000
  H   H207      1.0  0.81816  0.72578  0.48200  1.0000
  H   H208      1.0  0.80642  0.74195  0.52001  1.0000
  N   N188      1.0  0.87472  0.69733  0.41061  1.0000
  O   O103      1.0  0.88710  0.70441  0.37108  1.0000
  O   O104      1.0  0.87520  0.70119  0.49285  1.0000
  C   C397      1.0  0.68890  0.16347  0.33538  1.0000
  C   C398      1.0  0.70188  0.15258  0.37093  1.0000
  C   C399      1.0  0.71926  0.15804  0.37019  1.0000
  C   C400      1.0  0.72416  0.17419  0.33523  1.0000
  C   C401      1.0  0.74171  0.17933  0.34083  1.0000
  C   C402      1.0  0.74774  0.19112  0.40707  1.0000
  C   C403      1.0  0.76500  0.19682  0.40263  1.0000
  H   H209      1.0  0.76942  0.20511  0.45092  1.0000
  H   H210      1.0  0.72840  0.15023  0.39807  1.0000
  N   N189      1.0  0.73757  0.19705  0.47487  1.0000
  H   H211      1.0  0.72577  0.19327  0.48198  1.0000
  H   H212      1.0  0.74194  0.20501  0.51999  1.0000
  N   N190      1.0  0.69730  0.13671  0.41072  1.0000
  O   O105      1.0  0.70439  0.12433  0.37127  1.0000
  O   O106      1.0  0.70116  0.13624  0.49297  1.0000
  C   C404      1.0  0.32253  0.84798  0.33536  1.0000
  C   C405      1.0  0.30955  0.85888  0.37076  1.0000
  C   C406      1.0  0.29217  0.85340  0.37006  1.0000
  C   C407      1.0  0.28728  0.83725  0.33520  1.0000
  C   C408      1.0  0.26972  0.83209  0.34077  1.0000
  C   C409      1.0  0.26370  0.82032  0.40704  1.0000
  C   C410      1.0  0.24644  0.81461  0.40258  1.0000
  H   H213      1.0  0.24202  0.80632  0.45093  1.0000
  H   H214      1.0  0.28303  0.86122  0.39780  1.0000
  N   N191      1.0  0.27387  0.81439  0.47487  1.0000
  H   H215      1.0  0.28566  0.81818  0.48199  1.0000
  H   H216      1.0  0.26950  0.80644  0.51999  1.0000
  N   N192      1.0  0.31412  0.87476  0.41040  1.0000
  O   O107      1.0  0.30702  0.88713  0.37083  1.0000
  O   O108      1.0  0.31026  0.87525  0.49264  1.0000
  C   C411      1.0  0.82604  0.30051  0.39122  1.0000
  C   C412      1.0  0.83156  0.31781  0.39047  1.0000
  H   H217      1.0  0.82354  0.32683  0.41773  1.0000
  C   C413      1.0  0.82042  0.23543  0.35225  1.0000
  C   C414      1.0  0.83215  0.24150  0.41810  1.0000
  C   C415      1.0  0.83763  0.25883  0.41540  1.0000
  H   H218      1.0  0.84573  0.26318  0.46472  1.0000
  N   N193      1.0  0.81044  0.29673  0.42763  1.0000
  H   H219      1.0  0.80315  0.30564  0.45314  1.0000
  H   H220      1.0  0.80615  0.28505  0.43101  1.0000
  N   N194      1.0  0.83757  0.23039  0.48811  1.0000
  O   O109      1.0  0.83283  0.23577  0.56402  1.0000
  O   O110      1.0  0.85360  0.22863  0.48854  1.0000
  C   C416      1.0  0.18537  0.71091  0.39125  1.0000
  C   C417      1.0  0.17984  0.69361  0.39044  1.0000
  H   H221      1.0  0.18786  0.68459  0.41766  1.0000
  C   C418      1.0  0.19101  0.77599  0.35237  1.0000
  C   C419      1.0  0.17928  0.76992  0.41821  1.0000
  C   C420      1.0  0.17379  0.75260  0.41551  1.0000
  H   H222      1.0  0.16569  0.74825  0.46485  1.0000
  N   N195      1.0  0.20097  0.71468  0.42767  1.0000
  H   H223      1.0  0.20826  0.70577  0.45314  1.0000
  H   H224      1.0  0.20526  0.72636  0.43110  1.0000
  N   N196      1.0  0.17386  0.78104  0.48822  1.0000
  O   O111      1.0  0.17861  0.77566  0.56413  1.0000
  O   O112      1.0  0.15784  0.78281  0.48865  1.0000
  C   C421      1.0  0.30049  0.18538  0.39125  1.0000
  C   C422      1.0  0.31779  0.17986  0.39051  1.0000
  H   H225      1.0  0.32681  0.18788  0.41779  1.0000
  C   C423      1.0  0.23542  0.19102  0.35231  1.0000
  C   C424      1.0  0.24149  0.17929  0.41813  1.0000
  C   C425      1.0  0.25881  0.17380  0.41540  1.0000
  H   H226      1.0  0.26316  0.16570  0.46471  1.0000
  N   N197      1.0  0.29671  0.20099  0.42768  1.0000
  H   H227      1.0  0.30562  0.20828  0.45321  1.0000
  H   H228      1.0  0.28503  0.20527  0.43107  1.0000
  N   N198      1.0  0.23038  0.17387  0.48814  1.0000
  O   O113      1.0  0.23576  0.17861  0.56405  1.0000
  O   O114      1.0  0.22862  0.15784  0.48854  1.0000
  C   C426      1.0  0.71090  0.82607  0.39124  1.0000
  C   C427      1.0  0.69360  0.83159  0.39042  1.0000
  H   H229      1.0  0.68457  0.82357  0.41763  1.0000
  C   C428      1.0  0.77598  0.82044  0.35236  1.0000
  C   C429      1.0  0.76991  0.83217  0.41822  1.0000
  C   C430      1.0  0.75259  0.83764  0.41553  1.0000
  H   H230      1.0  0.74824  0.84574  0.46487  1.0000
  N   N199      1.0  0.71467  0.81046  0.42764  1.0000
  H   H231      1.0  0.70575  0.80317  0.45310  1.0000
  H   H232      1.0  0.72635  0.80617  0.43108  1.0000
  N   N200      1.0  0.78103  0.83758  0.48824  1.0000
  O   O115      1.0  0.77565  0.83283  0.56414  1.0000
  O   O116      1.0  0.78279  0.85360  0.48869  1.0000
  C   C431      1.0  0.40691  0.03800  0.35445  1.0000
  C   C432      1.0  0.41490  0.05257  0.39504  1.0000
  C   C433      1.0  0.40693  0.06895  0.39145  1.0000
  C   C434      1.0  0.39097  0.07162  0.34863  1.0000
  C   C435      1.0  0.38392  0.08873  0.34884  1.0000
  C   C436      1.0  0.37275  0.09489  0.41774  1.0000
  C   C437      1.0  0.36666  0.11208  0.41364  1.0000
  H   H233      1.0  0.35868  0.11641  0.46361  1.0000
  H   H234      1.0  0.41297  0.07913  0.42141  1.0000
  N   N201      1.0  0.36776  0.08484  0.48809  1.0000
  H   H235      1.0  0.37161  0.07305  0.49429  1.0000
  H   H236      1.0  0.36020  0.08921  0.53503  1.0000
  N   N202      1.0  0.43063  0.05075  0.44201  1.0000
  O   O117      1.0  0.44234  0.05973  0.40770  1.0000
  O   O118      1.0  0.42918  0.05450  0.52409  1.0000
  C   C438      1.0  0.60451  0.97348  0.35250  1.0000
  C   C439      1.0  0.59669  0.95897  0.39449  1.0000
  C   C440      1.0  0.60469  0.94262  0.39118  1.0000
  C   C441      1.0  0.62053  0.93990  0.34729  1.0000
  C   C442      1.0  0.62759  0.92280  0.34768  1.0000
  C   C443      1.0  0.63870  0.91664  0.41684  1.0000
  C   C444      1.0  0.64478  0.89944  0.41300  1.0000
  H   H237      1.0  0.65271  0.89511  0.46317  1.0000
  H   H238      1.0  0.59875  0.93247  0.42208  1.0000
  N   N203      1.0  0.64368  0.92671  0.48715  1.0000
  H   H239      1.0  0.63986  0.93852  0.49311  1.0000
  H   H240      1.0  0.65121  0.92235  0.53425  1.0000
  N   N204      1.0  0.58108  0.96087  0.44264  1.0000
  O   O119      1.0  0.56930  0.95179  0.40979  1.0000
  O   O120      1.0  0.58279  0.95728  0.52479  1.0000
  C   C445      1.0  0.97343  0.40692  0.35441  1.0000
  C   C446      1.0  0.95886  0.41490  0.39503  1.0000
  C   C447      1.0  0.94249  0.40693  0.39145  1.0000
  C   C448      1.0  0.93981  0.39098  0.34863  1.0000
  C   C449      1.0  0.92270  0.38392  0.34884  1.0000
  C   C450      1.0  0.91654  0.37276  0.41775  1.0000
  C   C451      1.0  0.89935  0.36667  0.41365  1.0000
  H   H241      1.0  0.89502  0.35869  0.46363  1.0000
  H   H242      1.0  0.93230  0.41297  0.42141  1.0000
  N   N205      1.0  0.92659  0.36777  0.48811  1.0000
  H   H243      1.0  0.93838  0.37162  0.49430  1.0000
  H   H244      1.0  0.92222  0.36021  0.53505  1.0000
  N   N206      1.0  0.96068  0.43064  0.44199  1.0000
  O   O121      1.0  0.95169  0.44235  0.40769  1.0000
  O   O122      1.0  0.95693  0.42919  0.52406  1.0000
  C   C452      1.0  0.03795  0.60453  0.35248  1.0000
  C   C453      1.0  0.05246  0.59669  0.39447  1.0000
  C   C454      1.0  0.06882  0.60469  0.39116  1.0000
  C   C455      1.0  0.07153  0.62053  0.34729  1.0000
  C   C456      1.0  0.08864  0.62760  0.34768  1.0000
  C   C457      1.0  0.09479  0.63871  0.41685  1.0000
  C   C458      1.0  0.11199  0.64478  0.41301  1.0000
  H   H245      1.0  0.11632  0.65271  0.46318  1.0000
  H   H246      1.0  0.07896  0.59875  0.42204  1.0000
  N   N207      1.0  0.08473  0.64368  0.48717  1.0000
  H   H247      1.0  0.07292  0.63986  0.49313  1.0000
  H   H248      1.0  0.08909  0.65121  0.53427  1.0000
  N   N208      1.0  0.05057  0.58109  0.44260  1.0000
  O   O123      1.0  0.05964  0.56931  0.40974  1.0000
  O   O124      1.0  0.05415  0.58279  0.52475  1.0000
  C   C459      1.0  0.62904  0.05672  0.38418  1.0000
  C   C460      1.0  0.62089  0.04037  0.38056  1.0000
  H   H249      1.0  0.62659  0.03023  0.41265  1.0000
  C   C461      1.0  0.64049  0.12312  0.34562  1.0000
  C   C462      1.0  0.62936  0.11694  0.41412  1.0000
  C   C463      1.0  0.62342  0.09970  0.41153  1.0000
  H   H250      1.0  0.61546  0.09551  0.46180  1.0000
  N   N209      1.0  0.64428  0.05818  0.42834  1.0000
  H   H251      1.0  0.64967  0.04830  0.45690  1.0000
  H   H252      1.0  0.65032  0.06905  0.43278  1.0000
  N   N210      1.0  0.62497  0.12793  0.48653  1.0000
  O   O125      1.0  0.63043  0.12219  0.56036  1.0000
  O   O126      1.0  0.60902  0.13003  0.49211  1.0000
  C   C464      1.0  0.38282  0.95452  0.38801  1.0000
  C   C465      1.0  0.39088  0.97092  0.38415  1.0000
  H   H253      1.0  0.38567  0.98081  0.42041  1.0000
  C   C466      1.0  0.37091  0.88838  0.34458  1.0000
  C   C467      1.0  0.38189  0.89468  0.41343  1.0000
  C   C468      1.0  0.38777  0.91195  0.41054  1.0000
  H   H254      1.0  0.39563  0.91623  0.46107  1.0000
  N   N211      1.0  0.36824  0.95274  0.43765  1.0000
  H   H255      1.0  0.36326  0.96241  0.46993  1.0000
  H   H256      1.0  0.36223  0.94185  0.44205  1.0000
  N   N212      1.0  0.38619  0.88379  0.48640  1.0000
  O   O127      1.0  0.38061  0.88960  0.55980  1.0000
  O   O128      1.0  0.40214  0.88175  0.49273  1.0000
  C   C469      1.0  0.05691  0.38284  0.38801  1.0000
  C   C470      1.0  0.04051  0.39090  0.38417  1.0000
  H   H257      1.0  0.03062  0.38568  0.42040  1.0000
  C   C471      1.0  0.12305  0.37093  0.34455  1.0000
  C   C472      1.0  0.11674  0.38190  0.41343  1.0000
  C   C473      1.0  0.09948  0.38778  0.41053  1.0000
  H   H258      1.0  0.09520  0.39564  0.46109  1.0000
  N   N213      1.0  0.05869  0.36826  0.43763  1.0000
  H   H259      1.0  0.04902  0.36328  0.46991  1.0000
  H   H260      1.0  0.06958  0.36224  0.44200  1.0000
  N   N214      1.0  0.12764  0.38620  0.48641  1.0000
  O   O129      1.0  0.12182  0.38061  0.55980  1.0000
  O   O130      1.0  0.12968  0.40215  0.49277  1.0000
  C   C474      1.0  0.95471  0.62906  0.38419  1.0000
  C   C475      1.0  0.97106  0.62091  0.38055  1.0000
  H   H261      1.0  0.98120  0.62661  0.41268  1.0000
  C   C476      1.0  0.88831  0.64051  0.34565  1.0000
  C   C477      1.0  0.89449  0.62938  0.41412  1.0000
  C   C478      1.0  0.91173  0.62344  0.41153  1.0000
  H   H262      1.0  0.91592  0.61547  0.46180  1.0000
  N   N215      1.0  0.95325  0.64430  0.42838  1.0000
  H   H263      1.0  0.96313  0.64968  0.45693  1.0000
  H   H264      1.0  0.94238  0.65034  0.43282  1.0000
  N   N216      1.0  0.88350  0.62499  0.48653  1.0000
  O   O131      1.0  0.88924  0.63044  0.56036  1.0000
  O   O132      1.0  0.88140  0.60904  0.49210  1.0000
  C   C479      1.0  0.45993  0.00543  0.34892  1.0000
  C   C480      1.0  0.46972  0.99173  0.38602  1.0000
  C   C481      1.0  0.48790  0.99254  0.38504  1.0000
  C   C482      1.0  0.49679  0.00667  0.34806  1.0000
  C   C483      1.0  0.51514  0.00654  0.35049  1.0000
  C   C484      1.0  0.52469  0.01324  0.42437  1.0000
  C   C485      1.0  0.54288  0.01296  0.42014  1.0000
  H   H265      1.0  0.54980  0.01773  0.47325  1.0000
  H   H266      1.0  0.49473  0.98263  0.41284  1.0000
  N   N217      1.0  0.51702  0.01993  0.49898  1.0000
  H   H267      1.0  0.50462  0.02037  0.50526  1.0000
  H   H268      1.0  0.52376  0.02440  0.54901  1.0000
  N   N218      1.0  0.46137  0.97767  0.42775  1.0000
  O   O133      1.0  0.46545  0.96366  0.39174  1.0000
  O   O134      1.0  0.46476  0.97691  0.51049  1.0000
  C   C486      1.0  0.00600  0.45994  0.34892  1.0000
  C   C487      1.0  0.01970  0.46974  0.38604  1.0000
  C   C488      1.0  0.01888  0.48792  0.38506  1.0000
  C   C489      1.0  0.00475  0.49681  0.34805  1.0000
  C   C490      1.0  0.00488  0.51515  0.35048  1.0000
  C   C491      1.0  0.99817  0.52471  0.42434  1.0000
  C   C492      1.0  0.99845  0.54290  0.42011  1.0000
  H   H269      1.0  0.99368  0.54982  0.47322  1.0000
  H   H270      1.0  0.02879  0.49475  0.41285  1.0000
  N   N219      1.0  0.99148  0.51704  0.49894  1.0000
  H   H271      1.0  0.99103  0.50464  0.50523  1.0000
  H   H272      1.0  0.98700  0.52377  0.54896  1.0000
  N   N220      1.0  0.03376  0.46139  0.42776  1.0000
  O   O135      1.0  0.04777  0.46547  0.39175  1.0000
  O   O136      1.0  0.03452  0.46478  0.51050  1.0000
  C   C493      1.0  0.24136  0.41619  0.37923  1.0000
  C   C494      1.0  0.25882  0.42137  0.37677  1.0000
  H   H273      1.0  0.26178  0.43337  0.40009  1.0000
  C   C495      1.0  0.18570  0.37909  0.35598  1.0000
  C   C496      1.0  0.19670  0.37816  0.43202  1.0000
  C   C497      1.0  0.21336  0.38544  0.42762  1.0000
  H   H274      1.0  0.22115  0.38459  0.48304  1.0000
  N   N221      1.0  0.22941  0.42740  0.41103  1.0000
  H   H275      1.0  0.23262  0.43880  0.43196  1.0000
  H   H276      1.0  0.21730  0.42450  0.41359  1.0000
  N   N222      1.0  0.19084  0.36985  0.51116  1.0000
  O   O137      1.0  0.19051  0.37999  0.57702  1.0000
  O   O138      1.0  0.20013  0.35721  0.53093  1.0000
  C   C498      1.0  0.77002  0.59526  0.37929  1.0000
  C   C499      1.0  0.75257  0.59008  0.37679  1.0000
  H   H277      1.0  0.74960  0.57808  0.40012  1.0000
  C   C500      1.0  0.82566  0.63238  0.35622  1.0000
  C   C501      1.0  0.81467  0.63329  0.43227  1.0000
  C   C502      1.0  0.79802  0.62599  0.42782  1.0000
  H   H278      1.0  0.79022  0.62684  0.48321  1.0000
  N   N223      1.0  0.78198  0.58405  0.41110  1.0000
  H   H279      1.0  0.77877  0.57265  0.43202  1.0000
  H   H280      1.0  0.79408  0.58695  0.41367  1.0000
  N   N224      1.0  0.82053  0.64160  0.51142  1.0000
  O   O139      1.0  0.82086  0.63146  0.57727  1.0000
  O   O140      1.0  0.81123  0.65422  0.53122  1.0000
  C   C503      1.0  0.59524  0.24141  0.37931  1.0000
  C   C504      1.0  0.59006  0.25886  0.37683  1.0000
  H   H281      1.0  0.57805  0.26182  0.40016  1.0000
  C   C505      1.0  0.63237  0.18577  0.35607  1.0000
  C   C506      1.0  0.63329  0.19676  0.43215  1.0000
  C   C507      1.0  0.62600  0.21341  0.42772  1.0000
  H   H282      1.0  0.62684  0.22121  0.48314  1.0000
  N   N225      1.0  0.58403  0.22945  0.41113  1.0000
  H   H283      1.0  0.57263  0.23266  0.43206  1.0000
  H   H284      1.0  0.58693  0.21734  0.41369  1.0000
  N   N226      1.0  0.64160  0.19090  0.51129  1.0000
  O   O141      1.0  0.63146  0.19056  0.57715  1.0000
  O   O142      1.0  0.65423  0.20020  0.53108  1.0000
  C   C508      1.0  0.41617  0.77007  0.37924  1.0000
  C   C509      1.0  0.42135  0.75261  0.37677  1.0000
  H   H285      1.0  0.43335  0.74965  0.40009  1.0000
  C   C510      1.0  0.37908  0.82574  0.35610  1.0000
  C   C511      1.0  0.37817  0.81474  0.43215  1.0000
  C   C512      1.0  0.38545  0.79809  0.42772  1.0000
  H   H286      1.0  0.38461  0.79029  0.48314  1.0000
  N   N227      1.0  0.42739  0.78202  0.41103  1.0000
  H   H287      1.0  0.43879  0.77881  0.43195  1.0000
  H   H288      1.0  0.42449  0.79413  0.41358  1.0000
  N   N228      1.0  0.36986  0.82061  0.51129  1.0000
  O   O143      1.0  0.38001  0.82094  0.57713  1.0000
  O   O144      1.0  0.35724  0.81131  0.53112  1.0000
  C   C513      1.0  0.73845  0.41099  0.34444  1.0000
  C   C514      1.0  0.74320  0.39449  0.37732  1.0000
  C   C515      1.0  0.76065  0.38927  0.37551  1.0000
  C   C516      1.0  0.77380  0.39998  0.34173  1.0000
  C   C517      1.0  0.79111  0.39370  0.34172  1.0000
  C   C518      1.0  0.80206  0.39459  0.41852  1.0000
  C   C519      1.0  0.81885  0.38754  0.41303  1.0000
  H   H289      1.0  0.82646  0.38755  0.46937  1.0000
  H   H290      1.0  0.76378  0.37738  0.39998  1.0000
  N   N229      1.0  0.79690  0.40175  0.49773  1.0000
  H   H291      1.0  0.78558  0.40678  0.50487  1.0000
  H   H292      1.0  0.80449  0.40221  0.54979  1.0000
  N   N230      1.0  0.73059  0.38352  0.41488  1.0000
  O   O145      1.0  0.72954  0.36959  0.37253  1.0000
  O   O146      1.0  0.73350  0.38039  0.49661  1.0000
  C   C520      1.0  0.27294  0.60046  0.34447  1.0000
  C   C521      1.0  0.26818  0.61696  0.37732  1.0000
  C   C522      1.0  0.25072  0.62218  0.37550  1.0000
  C   C523      1.0  0.23758  0.61146  0.34175  1.0000
  C   C524      1.0  0.22027  0.61773  0.34170  1.0000
  C   C525      1.0  0.20931  0.61685  0.41848  1.0000
  C   C526      1.0  0.19251  0.62389  0.41294  1.0000
  H   H293      1.0  0.18491  0.62389  0.46930  1.0000
  H   H294      1.0  0.24760  0.63406  0.39995  1.0000
  N   N231      1.0  0.21447  0.60970  0.49772  1.0000
  H   H295      1.0  0.22579  0.60468  0.50491  1.0000
  H   H296      1.0  0.20687  0.60923  0.54977  1.0000
  N   N232      1.0  0.28078  0.62794  0.41486  1.0000
  O   O147      1.0  0.28183  0.64187  0.37247  1.0000
  O   O148      1.0  0.27788  0.63107  0.49658  1.0000
  C   C527      1.0  0.41096  0.27298  0.34441  1.0000
  C   C528      1.0  0.39447  0.26823  0.37730  1.0000
  C   C529      1.0  0.38925  0.25077  0.37549  1.0000
  C   C530      1.0  0.39996  0.23763  0.34171  1.0000
  C   C531      1.0  0.39369  0.22032  0.34170  1.0000
  C   C532      1.0  0.39459  0.20936  0.41851  1.0000
  C   C533      1.0  0.38753  0.19257  0.41306  1.0000
  H   H297      1.0  0.38756  0.18496  0.46938  1.0000
  H   H298      1.0  0.37736  0.24764  0.39998  1.0000
  N   N233      1.0  0.40176  0.21452  0.49768  1.0000
  H   H299      1.0  0.40680  0.22584  0.50481  1.0000
  H   H300      1.0  0.40224  0.20693  0.54974  1.0000
  N   N234      1.0  0.38349  0.28083  0.41487  1.0000
  O   O149      1.0  0.36956  0.28187  0.37252  1.0000
  O   O150      1.0  0.38037  0.27792  0.49659  1.0000
  C   C534      1.0  0.60044  0.73850  0.34448  1.0000
  C   C535      1.0  0.61694  0.74325  0.37733  1.0000
  C   C536      1.0  0.62216  0.76070  0.37551  1.0000
  C   C537      1.0  0.61144  0.77385  0.34176  1.0000
  C   C538      1.0  0.61772  0.79116  0.34170  1.0000
  C   C539      1.0  0.61686  0.80212  0.41852  1.0000
  C   C540      1.0  0.62389  0.81891  0.41296  1.0000
  H   H301      1.0  0.62391  0.82651  0.46933  1.0000
  H   H302      1.0  0.63405  0.76383  0.39996  1.0000
  N   N235      1.0  0.60973  0.79695  0.49779  1.0000
  H   H303      1.0  0.60471  0.78563  0.50498  1.0000
  H   H304      1.0  0.60927  0.80454  0.54985  1.0000
  N   N236      1.0  0.62792  0.73065  0.41486  1.0000
  O   O151      1.0  0.64184  0.72960  0.37248  1.0000
  O   O152      1.0  0.63105  0.73355  0.49658  1.0000
  C   C541      1.0  0.31076  0.45963  0.34178  1.0000
  C   C542      1.0  0.32565  0.46854  0.37181  1.0000
  C   C543      1.0  0.32600  0.48681  0.37252  1.0000
  C   C544      1.0  0.31190  0.49683  0.34377  1.0000
  C   C545      1.0  0.31267  0.51524  0.35138  1.0000
  C   C546      1.0  0.30448  0.52438  0.42267  1.0000
  C   C547      1.0  0.30416  0.54260  0.42034  1.0000
  H   H305      1.0  0.29802  0.54907  0.47109  1.0000
  H   H306      1.0  0.33672  0.49289  0.39648  1.0000
  N   N237      1.0  0.29677  0.51622  0.49302  1.0000
  H   H307      1.0  0.29687  0.50381  0.49877  1.0000
  H   H308      1.0  0.29128  0.52262  0.54148  1.0000
  N   N238      1.0  0.33991  0.45916  0.40428  1.0000
  O   O153      1.0  0.35323  0.46248  0.35982  1.0000
  O   O154      1.0  0.34274  0.46224  0.48612  1.0000
  C   C548      1.0  0.70063  0.55183  0.34176  1.0000
  C   C549      1.0  0.68574  0.54291  0.37179  1.0000
  C   C550      1.0  0.68539  0.52464  0.37250  1.0000
  C   C551      1.0  0.69950  0.51463  0.34373  1.0000
  C   C552      1.0  0.69872  0.49622  0.35130  1.0000
  C   C553      1.0  0.70692  0.48708  0.42260  1.0000
  C   C554      1.0  0.70723  0.46886  0.42027  1.0000
  H   H309      1.0  0.71338  0.46239  0.47101  1.0000
  H   H310      1.0  0.67467  0.51856  0.39642  1.0000
  N   N239      1.0  0.71463  0.49524  0.49295  1.0000
  H   H311      1.0  0.71453  0.50765  0.49870  1.0000
  H   H312      1.0  0.72012  0.48883  0.54140  1.0000
  N   N240      1.0  0.67147  0.55229  0.40424  1.0000
  O   O155      1.0  0.65816  0.54897  0.35977  1.0000
  O   O156      1.0  0.66865  0.54921  0.48608  1.0000
  C   C555      1.0  0.55180  0.31080  0.34180  1.0000
  C   C556      1.0  0.54288  0.32569  0.37179  1.0000
  C   C557      1.0  0.52462  0.32604  0.37249  1.0000
  C   C558      1.0  0.51459  0.31194  0.34376  1.0000
  C   C559      1.0  0.49618  0.31271  0.35137  1.0000
  C   C560      1.0  0.48705  0.30451  0.42262  1.0000
  C   C561      1.0  0.46883  0.30419  0.42028  1.0000
  H   H313      1.0  0.46236  0.29805  0.47101  1.0000
  H   H314      1.0  0.51853  0.33676  0.39642  1.0000
  N   N241      1.0  0.49521  0.29679  0.49297  1.0000
  H   H315      1.0  0.50762  0.29690  0.49874  1.0000
  H   H316      1.0  0.48880  0.29131  0.54141  1.0000
  N   N242      1.0  0.55227  0.33996  0.40424  1.0000
  O   O157      1.0  0.54895  0.35327  0.35975  1.0000
  O   O158      1.0  0.54919  0.34279  0.48608  1.0000
  C   C562      1.0  0.45960  0.70067  0.34180  1.0000
  C   C563      1.0  0.46852  0.68578  0.37178  1.0000
  C   C564      1.0  0.48679  0.68543  0.37250  1.0000
  C   C565      1.0  0.49680  0.69954  0.34375  1.0000
  C   C566      1.0  0.51521  0.69876  0.35134  1.0000
  C   C567      1.0  0.52435  0.70696  0.42262  1.0000
  C   C568      1.0  0.54258  0.70727  0.42030  1.0000
  H   H317      1.0  0.54904  0.71342  0.47103  1.0000
  H   H318      1.0  0.49287  0.67471  0.39639  1.0000
  N   N243      1.0  0.51619  0.71468  0.49297  1.0000
  H   H319      1.0  0.50378  0.71457  0.49873  1.0000
  H   H320      1.0  0.52260  0.72016  0.54142  1.0000
  N   N244      1.0  0.45913  0.67151  0.40420  1.0000
  O   O159      1.0  0.46246  0.65820  0.35969  1.0000
  O   O160      1.0  0.46222  0.66868  0.48603  1.0000
  C   C569      1.0  0.34386  0.36963  0.37300  1.0000
  C   C570      1.0  0.33109  0.38266  0.37273  1.0000
  H   H321      1.0  0.31905  0.37938  0.39415  1.0000
  C   C571      1.0  0.40030  0.33467  0.34070  1.0000
  C   C572      1.0  0.39925  0.34688  0.41149  1.0000
  C   C573      1.0  0.38636  0.35979  0.40949  1.0000
  H   H322      1.0  0.38555  0.36818  0.46247  1.0000
  N   N245      1.0  0.33941  0.35359  0.40112  1.0000
  H   H323      1.0  0.32779  0.35098  0.42088  1.0000
  H   H324      1.0  0.34768  0.34429  0.40400  1.0000
  N   N246      1.0  0.41048  0.34528  0.48605  1.0000
  O   O161      1.0  0.40234  0.34221  0.55744  1.0000
  O   O162      1.0  0.41927  0.35863  0.49710  1.0000
  C   C574      1.0  0.66754  0.64184  0.37299  1.0000
  C   C575      1.0  0.68030  0.62880  0.37271  1.0000
  H   H325      1.0  0.69234  0.63207  0.39412  1.0000
  C   C576      1.0  0.61110  0.67680  0.34073  1.0000
  C   C577      1.0  0.61216  0.66460  0.41157  1.0000
  C   C578      1.0  0.62505  0.65168  0.40956  1.0000
  H   H326      1.0  0.62587  0.64331  0.46258  1.0000
  N   N247      1.0  0.67199  0.65787  0.40112  1.0000
  H   H327      1.0  0.68362  0.66048  0.42086  1.0000
  H   H328      1.0  0.66372  0.66717  0.40401  1.0000
  N   N248      1.0  0.60094  0.66622  0.48617  1.0000
  O   O163      1.0  0.60910  0.66930  0.55751  1.0000
  O   O164      1.0  0.59215  0.65287  0.49735  1.0000
  C   C579      1.0  0.64180  0.34389  0.37302  1.0000
  C   C580      1.0  0.62876  0.33113  0.37276  1.0000
  H   H329      1.0  0.63204  0.31909  0.39419  1.0000
  C   C581      1.0  0.67676  0.40033  0.34067  1.0000
  C   C582      1.0  0.66456  0.39927  0.41154  1.0000
  C   C583      1.0  0.65165  0.38637  0.40954  1.0000
  H   H330      1.0  0.64328  0.38555  0.46256  1.0000
  N   N249      1.0  0.65784  0.33944  0.40116  1.0000
  H   H331      1.0  0.66045  0.32782  0.42093  1.0000
  H   H332      1.0  0.66714  0.34771  0.40402  1.0000
  N   N250      1.0  0.66618  0.41048  0.48614  1.0000
  O   O165      1.0  0.66926  0.40234  0.55748  1.0000
  O   O166      1.0  0.65283  0.41927  0.49732  1.0000
  C   C584      1.0  0.36959  0.66758  0.37298  1.0000
  C   C585      1.0  0.38263  0.68034  0.37269  1.0000
  H   H333      1.0  0.37935  0.69238  0.39409  1.0000
  C   C586      1.0  0.33463  0.61113  0.34075  1.0000
  C   C587      1.0  0.34685  0.61218  0.41153  1.0000
  C   C588      1.0  0.35976  0.62508  0.40952  1.0000
  H   H334      1.0  0.36814  0.62589  0.46251  1.0000
  N   N251      1.0  0.35356  0.67203  0.40109  1.0000
  H   H335      1.0  0.35095  0.68365  0.42083  1.0000
  H   H336      1.0  0.34426  0.66376  0.40399  1.0000
  N   N252      1.0  0.34524  0.60096  0.48609  1.0000
  O   O167      1.0  0.34217  0.60910  0.55748  1.0000
  O   O168      1.0  0.35859  0.59216  0.49717  1.0000
