data_image0
_chemical_formula_structural       N8C4NH3C4NH3C4NH3C4NH3C4NH3C4NH3C4NH3C4NH3N8C4NH3C4NH3C4NH3C4NH3N8C4NH3C4NH3N8C4NH3C4NH3C4NH3C4NH3C4NH3C4NH3C4NH3C4NH3N8CNCNCNCNCNCNCNCNCNCNCNCNCNCNCNCNCNCNCNCNCNCNCNCNCNCNCNCNCNCNCNCNCNCNCNCNCNCNCNCNCNCNCNCNCNCNCNCNCNCNCNCNCNCNCNCNCNCNCNCNCNCNCNCNCNCNCNCNCNCNCNCNCNCNCNCNCNCNCNCNCNCNCNCNC4NH3C4NH3C4NH3C4NH3N16C4NH3C4NH3C4NH3C4NH3N8C4NH3C4NH3C4NH3C4NH3N4C4NH3C4NH3C4NH3C4NH3N16C4NH3C4NH3C4NH3C4NH3
_chemical_formula_sum              "N210 C252 H126"
_cell_length_a       50.9673
_cell_length_b       50.9673
_cell_length_c       14.7713
_cell_angle_alpha    90
_cell_angle_beta     90
_cell_angle_gamma    90

_space_group_name_H-M_alt    "P 1"
_space_group_IT_number       1

loop_
  _space_group_symop_operation_xyz
  'x, y, z'

loop_
  _atom_site_type_symbol
  _atom_site_label
  _atom_site_symmetry_multiplicity
  _atom_site_fract_x
  _atom_site_fract_y
  _atom_site_fract_z
  _atom_site_occupancy
  N   N1        1.0  0.12067  0.14721  0.35424  1.0000
  N   N2        1.0  0.13849  0.16558  0.35387  1.0000
  N   N3        1.0  0.89455  0.86862  0.35428  1.0000
  N   N4        1.0  0.87688  0.85011  0.35424  1.0000
  N   N5        1.0  0.86809  0.12117  0.35386  1.0000
  N   N6        1.0  0.84965  0.13892  0.35388  1.0000
  N   N7        1.0  0.14663  0.89504  0.35401  1.0000
  N   N8        1.0  0.16507  0.87729  0.35370  1.0000
  C   C1        1.0  0.09980  0.98042  0.30776  1.0000
  C   C2        1.0  0.09000  0.99345  0.23063  1.0000
  C   C3        1.0  0.09013  0.02107  0.22608  1.0000
  C   C4        1.0  0.10020  0.03490  0.30206  1.0000
  N   N9        1.0  0.08043  0.03310  0.15097  1.0000
  H   H1        1.0  0.07418  0.02296  0.09941  1.0000
  H   H2        1.0  0.08196  0.05194  0.14258  1.0000
  H   H3        1.0  0.08173  0.98282  0.17909  1.0000
  C   C5        1.0  0.91496  0.03563  0.30808  1.0000
  C   C6        1.0  0.92480  0.02262  0.23097  1.0000
  C   C7        1.0  0.92472  0.99499  0.22646  1.0000
  C   C8        1.0  0.91468  0.98112  0.30245  1.0000
  N   N10       1.0  0.93445  0.98298  0.15134  1.0000
  H   H4        1.0  0.94069  0.99313  0.09980  1.0000
  H   H5        1.0  0.93296  0.96415  0.14292  1.0000
  H   H6        1.0  0.93305  0.03325  0.17941  1.0000
  C   C9        1.0  0.03510  0.10040  0.30799  1.0000
  C   C10       1.0  0.02205  0.09047  0.23107  1.0000
  C   C11       1.0  0.99442  0.09053  0.22661  1.0000
  C   C12       1.0  0.98058  0.10062  0.30256  1.0000
  N   N11       1.0  0.98241  0.08074  0.15158  1.0000
  H   H7        1.0  0.99256  0.07447  0.10008  1.0000
  H   H8        1.0  0.96358  0.08223  0.14315  1.0000
  H   H9        1.0  0.03267  0.08218  0.17956  1.0000
  C   C13       1.0  0.97983  0.91565  0.30784  1.0000
  C   C14       1.0  0.99284  0.92546  0.23067  1.0000
  C   C15       1.0  0.02046  0.92536  0.22619  1.0000
  C   C16       1.0  0.03429  0.91532  0.30224  1.0000
  N   N12       1.0  0.03248  0.93503  0.15101  1.0000
  H   H10       1.0  0.02237  0.94148  0.09970  1.0000
  H   H11       1.0  0.05135  0.93374  0.14284  1.0000
  H   H12       1.0  0.98221  0.93372  0.17913  1.0000
  C   C17       1.0  0.16899  0.30539  0.32700  1.0000
  C   C18       1.0  0.19223  0.29744  0.28232  1.0000
  C   C19       1.0  0.20073  0.27105  0.28307  1.0000
  C   C20       1.0  0.18545  0.25270  0.33303  1.0000
  N   N13       1.0  0.22248  0.26463  0.23430  1.0000
  H   H13       1.0  0.23175  0.27777  0.19869  1.0000
  H   H14       1.0  0.22726  0.24652  0.22321  1.0000
  H   H15       1.0  0.20315  0.31107  0.24796  1.0000
  C   C21       1.0  0.84625  0.70984  0.32903  1.0000
  C   C22       1.0  0.82315  0.71792  0.28366  1.0000
  C   C23       1.0  0.81480  0.74436  0.28410  1.0000
  C   C24       1.0  0.83007  0.76265  0.33438  1.0000
  N   N14       1.0  0.79320  0.75088  0.23473  1.0000
  H   H16       1.0  0.78393  0.73778  0.19893  1.0000
  H   H17       1.0  0.78854  0.76901  0.22344  1.0000
  H   H18       1.0  0.81224  0.70434  0.24905  1.0000
  C   C25       1.0  0.70952  0.16941  0.32949  1.0000
  C   C26       1.0  0.71754  0.19254  0.28423  1.0000
  C   C27       1.0  0.74396  0.20098  0.28472  1.0000
  C   C28       1.0  0.76229  0.18577  0.33499  1.0000
  N   N15       1.0  0.75041  0.22262  0.23539  1.0000
  H   H19       1.0  0.73728  0.23185  0.19958  1.0000
  H   H20       1.0  0.76852  0.22734  0.22416  1.0000
  H   H21       1.0  0.70394  0.20342  0.24963  1.0000
  C   C29       1.0  0.30500  0.84675  0.32667  1.0000
  C   C30       1.0  0.29701  0.82358  0.28161  1.0000
  C   C31       1.0  0.27060  0.81515  0.28228  1.0000
  C   C32       1.0  0.25229  0.83042  0.33245  1.0000
  N   N16       1.0  0.26415  0.79347  0.23320  1.0000
  H   H22       1.0  0.27729  0.78403  0.19809  1.0000
  H   H23       1.0  0.24606  0.78851  0.22276  1.0000
  H   H24       1.0  0.31062  0.81268  0.24713  1.0000
  N   N17       1.0  0.85060  0.26189  0.35352  1.0000
  N   N18       1.0  0.85855  0.28640  0.35186  1.0000
  N   N19       1.0  0.16403  0.75451  0.35332  1.0000
  N   N20       1.0  0.15603  0.73003  0.35169  1.0000
  N   N21       1.0  0.26154  0.16450  0.35317  1.0000
  N   N22       1.0  0.28606  0.15659  0.35168  1.0000
  N   N23       1.0  0.75418  0.85103  0.35356  1.0000
  N   N24       1.0  0.72973  0.85910  0.35170  1.0000
  C   C33       1.0  0.40102  0.05811  0.32878  1.0000
  C   C34       1.0  0.41454  0.07895  0.28583  1.0000
  C   C35       1.0  0.40437  0.10485  0.28285  1.0000
  C   C36       1.0  0.38037  0.11013  0.32930  1.0000
  N   N25       1.0  0.41773  0.12288  0.23266  1.0000
  H   H25       1.0  0.43353  0.11803  0.19954  1.0000
  H   H26       1.0  0.40985  0.13944  0.21581  1.0000
  H   H27       1.0  0.43182  0.07508  0.25307  1.0000
  C   C37       1.0  0.61622  0.95875  0.32545  1.0000
  C   C38       1.0  0.60323  0.93818  0.27900  1.0000
  C   C39       1.0  0.61311  0.91217  0.27689  1.0000
  C   C40       1.0  0.63638  0.90654  0.32697  1.0000
  N   N26       1.0  0.60020  0.89436  0.22443  1.0000
  H   H28       1.0  0.58489  0.89942  0.18903  1.0000
  H   H29       1.0  0.60800  0.87763  0.20911  1.0000
  H   H30       1.0  0.58640  0.94228  0.24386  1.0000
  C   C41       1.0  0.95732  0.40126  0.32894  1.0000
  C   C42       1.0  0.93648  0.41478  0.28595  1.0000
  C   C43       1.0  0.91057  0.40463  0.28300  1.0000
  C   C44       1.0  0.90527  0.38064  0.32949  1.0000
  N   N27       1.0  0.89257  0.41798  0.23270  1.0000
  H   H31       1.0  0.89743  0.43377  0.19953  1.0000
  H   H32       1.0  0.87600  0.41011  0.21584  1.0000
  H   H33       1.0  0.94037  0.43204  0.25314  1.0000
  C   C45       1.0  0.05670  0.61642  0.32546  1.0000
  C   C46       1.0  0.07727  0.60345  0.27890  1.0000
  C   C47       1.0  0.10326  0.61335  0.27678  1.0000
  C   C48       1.0  0.10888  0.63663  0.32684  1.0000
  N   N28       1.0  0.12106  0.60046  0.22425  1.0000
  H   H34       1.0  0.11611  0.58499  0.18946  1.0000
  H   H35       1.0  0.13794  0.60804  0.20962  1.0000
  H   H36       1.0  0.07316  0.58664  0.24372  1.0000
  N   N29       1.0  0.64683  0.08831  0.33240  1.0000
  N   N30       1.0  0.63779  0.06407  0.33012  1.0000
  N   N31       1.0  0.36710  0.92818  0.32994  1.0000
  N   N32       1.0  0.37595  0.95250  0.32822  1.0000
  N   N33       1.0  0.08730  0.36734  0.32998  1.0000
  N   N34       1.0  0.06297  0.37618  0.32826  1.0000
  N   N35       1.0  0.92717  0.64706  0.33225  1.0000
  N   N36       1.0  0.95141  0.63801  0.32999  1.0000
  C   C49       1.0  0.53516  0.00582  0.33040  1.0000
  C   C50       1.0  0.52178  0.98338  0.29851  1.0000
  C   C51       1.0  0.49408  0.98294  0.29112  1.0000
  C   C52       1.0  0.47990  0.00542  0.32161  1.0000
  N   N37       1.0  0.48279  0.96155  0.25189  1.0000
  H   H37       1.0  0.49346  0.94715  0.22894  1.0000
  H   H38       1.0  0.46461  0.96165  0.23300  1.0000
  H   H39       1.0  0.53235  0.96747  0.27700  1.0000
  C   C53       1.0  0.00961  0.53539  0.33039  1.0000
  C   C54       1.0  0.03204  0.52201  0.29844  1.0000
  C   C55       1.0  0.03248  0.49430  0.29111  1.0000
  C   C56       1.0  0.01001  0.48013  0.32167  1.0000
  N   N38       1.0  0.05386  0.48301  0.25178  1.0000
  H   H40       1.0  0.06825  0.49368  0.22876  1.0000
  H   H41       1.0  0.05375  0.46483  0.23290  1.0000
  H   H42       1.0  0.04794  0.53257  0.27686  1.0000
  N   N39       1.0  0.23931  0.41311  0.29801  1.0000
  N   N40       1.0  0.21499  0.40448  0.29600  1.0000
  N   N41       1.0  0.77489  0.60292  0.29938  1.0000
  N   N42       1.0  0.79927  0.61137  0.29768  1.0000
  N   N43       1.0  0.60205  0.24038  0.30044  1.0000
  N   N44       1.0  0.61065  0.21606  0.29866  1.0000
  N   N45       1.0  0.41239  0.77606  0.29817  1.0000
  N   N46       1.0  0.40388  0.80042  0.29637  1.0000
  C   C57       1.0  0.80908  0.39070  0.35211  1.0000
  C   C58       1.0  0.80704  0.41697  0.32336  1.0000
  C   C59       1.0  0.78215  0.42944  0.31468  1.0000
  C   C60       1.0  0.75908  0.41479  0.33811  1.0000
  N   N47       1.0  0.78211  0.45441  0.28196  1.0000
  H   H43       1.0  0.79836  0.46323  0.26540  1.0000
  H   H44       1.0  0.76617  0.46377  0.26817  1.0000
  H   H45       1.0  0.82381  0.42681  0.30587  1.0000
  C   C61       1.0  0.20516  0.62567  0.34984  1.0000
  C   C62       1.0  0.20724  0.59942  0.32094  1.0000
  C   C63       1.0  0.23216  0.58698  0.31239  1.0000
  C   C64       1.0  0.25521  0.60162  0.33607  1.0000
  N   N48       1.0  0.23223  0.56202  0.27962  1.0000
  H   H46       1.0  0.21599  0.55314  0.26327  1.0000
  H   H47       1.0  0.24817  0.55258  0.26653  1.0000
  H   H48       1.0  0.19049  0.58959  0.30321  1.0000
  C   C65       1.0  0.39015  0.20637  0.35173  1.0000
  C   C66       1.0  0.41640  0.20851  0.32287  1.0000
  C   C67       1.0  0.42875  0.23345  0.31406  1.0000
  C   C68       1.0  0.41403  0.25646  0.33753  1.0000
  N   N49       1.0  0.45372  0.23357  0.28125  1.0000
  H   H49       1.0  0.46259  0.21735  0.26469  1.0000
  H   H50       1.0  0.46300  0.24953  0.26729  1.0000
  H   H51       1.0  0.42629  0.19178  0.30537  1.0000
  C   C69       1.0  0.62515  0.81032  0.35001  1.0000
  C   C70       1.0  0.59889  0.80833  0.32105  1.0000
  C   C71       1.0  0.58635  0.78346  0.31258  1.0000
  C   C72       1.0  0.60089  0.76036  0.33641  1.0000
  N   N50       1.0  0.56140  0.78346  0.27970  1.0000
  H   H52       1.0  0.55263  0.79971  0.26287  1.0000
  H   H53       1.0  0.55200  0.76753  0.26614  1.0000
  H   H54       1.0  0.58913  0.82512  0.30328  1.0000
  C   C73       1.0  0.31848  0.47717  0.31828  1.0000
  C   C74       1.0  0.30430  0.49013  0.24950  1.0000
  C   C75       1.0  0.30471  0.51781  0.24176  1.0000
  C   C76       1.0  0.31901  0.53245  0.30760  1.0000
  N   N51       1.0  0.29159  0.52921  0.17178  1.0000
  H   H55       1.0  0.28255  0.51865  0.12651  1.0000
  H   H56       1.0  0.29318  0.54784  0.15925  1.0000
  H   H57       1.0  0.29341  0.47929  0.20475  1.0000
  C   C77       1.0  0.69557  0.53921  0.31899  1.0000
  C   C78       1.0  0.70973  0.52623  0.25018  1.0000
  C   C79       1.0  0.70945  0.49854  0.24283  1.0000
  C   C80       1.0  0.69525  0.48395  0.30901  1.0000
  N   N52       1.0  0.72257  0.48713  0.17291  1.0000
  H   H58       1.0  0.73174  0.49763  0.12783  1.0000
  H   H59       1.0  0.72128  0.46843  0.16101  1.0000
  H   H60       1.0  0.72057  0.53706  0.20527  1.0000
  C   C81       1.0  0.53827  0.31972  0.31935  1.0000
  C   C82       1.0  0.52533  0.30563  0.25033  1.0000
  C   C83       1.0  0.49765  0.30606  0.24257  1.0000
  C   C84       1.0  0.48304  0.32032  0.30856  1.0000
  N   N53       1.0  0.48623  0.29298  0.17255  1.0000
  H   H61       1.0  0.49677  0.28396  0.12721  1.0000
  H   H62       1.0  0.46760  0.29457  0.16012  1.0000
  H   H63       1.0  0.53616  0.29475  0.20555  1.0000
  C   C85       1.0  0.47627  0.69688  0.31824  1.0000
  C   C86       1.0  0.48923  0.71113  0.24962  1.0000
  C   C87       1.0  0.51692  0.71086  0.24217  1.0000
  C   C88       1.0  0.53155  0.69662  0.30816  1.0000
  N   N54       1.0  0.52831  0.72404  0.17233  1.0000
  H   H64       1.0  0.51775  0.73303  0.12695  1.0000
  H   H65       1.0  0.54696  0.72252  0.15993  1.0000
  H   H66       1.0  0.47838  0.72199  0.20480  1.0000
  N   N55       1.0  0.37337  0.39092  0.33022  1.0000
  N   N56       1.0  0.39253  0.37362  0.32420  1.0000
  N   N57       1.0  0.64096  0.62571  0.33047  1.0000
  N   N58       1.0  0.62187  0.64308  0.32427  1.0000
  N   N59       1.0  0.62458  0.37443  0.33126  1.0000
  N   N60       1.0  0.64191  0.39355  0.32512  1.0000
  N   N61       1.0  0.38984  0.64198  0.32948  1.0000
  N   N62       1.0  0.37248  0.62287  0.32333  1.0000
  C   C89       1.0  0.06160  0.09437  0.32315  1.0000
  N   N63       1.0  0.07960  0.11168  0.35502  1.0000
  C   C90       1.0  0.10494  0.10410  0.36978  1.0000
  N   N64       1.0  0.11198  0.07893  0.35042  1.0000
  C   C91       1.0  0.09433  0.06140  0.31835  1.0000
  N   N65       1.0  0.06932  0.06945  0.30613  1.0000
  C   C92       1.0  0.95334  0.92169  0.32310  1.0000
  N   N66       1.0  0.93537  0.90432  0.35479  1.0000
  C   C93       1.0  0.91003  0.91185  0.36957  1.0000
  N   N67       1.0  0.90293  0.93703  0.35047  1.0000
  C   C94       1.0  0.92056  0.95461  0.31858  1.0000
  N   N68       1.0  0.94559  0.94660  0.30627  1.0000
  C   C95       1.0  0.92102  0.06213  0.32325  1.0000
  N   N69       1.0  0.90370  0.08018  0.35461  1.0000
  C   C96       1.0  0.91128  0.10552  0.36920  1.0000
  N   N70       1.0  0.93649  0.11252  0.35017  1.0000
  C   C97       1.0  0.95404  0.09482  0.31855  1.0000
  N   N71       1.0  0.94597  0.06980  0.30650  1.0000
  C   C98       1.0  0.09373  0.95395  0.32317  1.0000
  N   N72       1.0  0.11106  0.93597  0.35499  1.0000
  C   C99       1.0  0.10350  0.91064  0.36982  1.0000
  N   N73       1.0  0.07833  0.90357  0.35052  1.0000
  C   C100      1.0  0.06079  0.92121  0.31849  1.0000
  N   N74       1.0  0.06882  0.94623  0.30618  1.0000
  C   C101      1.0  0.22659  0.19468  0.38046  1.0000
  N   N75       1.0  0.21873  0.21961  0.36152  1.0000
  C   C102      1.0  0.19305  0.22632  0.35026  1.0000
  N   N76       1.0  0.17481  0.20707  0.36057  1.0000
  C   C103      1.0  0.18185  0.18188  0.37944  1.0000
  N   N77       1.0  0.20775  0.17610  0.38804  1.0000
  C   C104      1.0  0.78892  0.82068  0.38112  1.0000
  N   N78       1.0  0.79680  0.79575  0.36246  1.0000
  C   C105      1.0  0.82250  0.78905  0.35148  1.0000
  N   N79       1.0  0.84073  0.80832  0.36167  1.0000
  C   C106      1.0  0.83364  0.83352  0.38026  1.0000
  N   N80       1.0  0.80773  0.83927  0.38859  1.0000
  C   C107      1.0  0.82038  0.22697  0.38109  1.0000
  N   N81       1.0  0.79542  0.21907  0.36278  1.0000
  C   C108      1.0  0.78871  0.19337  0.35179  1.0000
  N   N82       1.0  0.80799  0.17515  0.36168  1.0000
  C   C109      1.0  0.83322  0.18223  0.37993  1.0000
  N   N83       1.0  0.83899  0.20814  0.38830  1.0000
  C   C110      1.0  0.19434  0.78930  0.38029  1.0000
  N   N84       1.0  0.21925  0.79715  0.36112  1.0000
  C   C111      1.0  0.22592  0.82283  0.34980  1.0000
  N   N85       1.0  0.20669  0.84107  0.36031  1.0000
  C   C112      1.0  0.18152  0.83401  0.37944  1.0000
  N   N86       1.0  0.17576  0.80811  0.38806  1.0000
  C   C113      1.0  0.41087  0.98530  0.35313  1.0000
  N   N87       1.0  0.39845  0.00921  0.34720  1.0000
  C   C114      1.0  0.41221  0.03218  0.33402  1.0000
  N   N88       1.0  0.43886  0.03020  0.32591  1.0000
  C   C115      1.0  0.45206  0.00712  0.32895  1.0000
  N   N89       1.0  0.43740  0.98547  0.34396  1.0000
  C   C116      1.0  0.60296  0.03119  0.35394  1.0000
  N   N90       1.0  0.61679  0.00806  0.34572  1.0000
  C   C117      1.0  0.60438  0.98434  0.33323  1.0000
  N   N91       1.0  0.57773  0.98492  0.32916  1.0000
  C   C118      1.0  0.56301  0.00692  0.33662  1.0000
  N   N92       1.0  0.57624  0.02968  0.34912  1.0000
  C   C119      1.0  0.03015  0.41110  0.35310  1.0000
  N   N93       1.0  0.00623  0.39868  0.34729  1.0000
  C   C120      1.0  0.98325  0.41244  0.33417  1.0000
  N   N94       1.0  0.98523  0.43909  0.32606  1.0000
  C   C121      1.0  0.00832  0.45229  0.32907  1.0000
  N   N95       1.0  0.02997  0.43762  0.34398  1.0000
  C   C122      1.0  0.98427  0.60320  0.35395  1.0000
  N   N96       1.0  0.00740  0.61702  0.34574  1.0000
  C   C123      1.0  0.03111  0.60460  0.33318  1.0000
  N   N97       1.0  0.03052  0.57795  0.32910  1.0000
  C   C124      1.0  0.00851  0.56324  0.33659  1.0000
  N   N98       1.0  0.98576  0.57648  0.34915  1.0000
  C   C125      1.0  0.32938  0.40604  0.36351  1.0000
  N   N99       1.0  0.33435  0.43207  0.34713  1.0000
  C   C126      1.0  0.31457  0.44992  0.33463  1.0000
  N   N100      1.0  0.28930  0.44126  0.33911  1.0000
  C   C127      1.0  0.28323  0.41585  0.35627  1.0000
  N   N101      1.0  0.30358  0.39883  0.36688  1.0000
  C   C128      1.0  0.68487  0.61041  0.36397  1.0000
  N   N102      1.0  0.67978  0.58439  0.34757  1.0000
  C   C129      1.0  0.69949  0.56644  0.33536  1.0000
  N   N103      1.0  0.72479  0.57498  0.34018  1.0000
  C   C130      1.0  0.73096  0.60035  0.35734  1.0000
  N   N104      1.0  0.71069  0.61747  0.36763  1.0000
  C   C131      1.0  0.60939  0.33050  0.36474  1.0000
  N   N105      1.0  0.58339  0.33553  0.34822  1.0000
  C   C132      1.0  0.56550  0.31578  0.33587  1.0000
  N   N106      1.0  0.57408  0.29049  0.34066  1.0000
  C   C133      1.0  0.59946  0.28438  0.35801  1.0000
  N   N107      1.0  0.61653  0.30469  0.36846  1.0000
  C   C134      1.0  0.40507  0.68594  0.36289  1.0000
  N   N108      1.0  0.43111  0.68095  0.34668  1.0000
  C   C135      1.0  0.44899  0.70072  0.33442  1.0000
  N   N109      1.0  0.44035  0.72600  0.33905  1.0000
  C   C136      1.0  0.41495  0.73208  0.35607  1.0000
  N   N110      1.0  0.39790  0.71175  0.36644  1.0000
  C   C137      1.0  0.68609  0.41210  0.34620  1.0000
  N   N111      1.0  0.68008  0.43806  0.33348  1.0000
  C   C138      1.0  0.69932  0.45653  0.32245  1.0000
  N   N112      1.0  0.72470  0.44831  0.32537  1.0000
  C   C139      1.0  0.73211  0.42301  0.33644  1.0000
  N   N113      1.0  0.71210  0.40551  0.34717  1.0000
  C   C140      1.0  0.32824  0.60434  0.34433  1.0000
  N   N114      1.0  0.33424  0.57837  0.33180  1.0000
  C   C141      1.0  0.31499  0.55989  0.32082  1.0000
  N   N115      1.0  0.28962  0.56813  0.32362  1.0000
  C   C142      1.0  0.28221  0.59344  0.33453  1.0000
  N   N116      1.0  0.30223  0.61094  0.34521  1.0000
  C   C143      1.0  0.41115  0.32946  0.34545  1.0000
  N   N117      1.0  0.43711  0.33551  0.33283  1.0000
  C   C144      1.0  0.45562  0.31628  0.32194  1.0000
  N   N118      1.0  0.44743  0.29090  0.32487  1.0000
  C   C145      1.0  0.42214  0.28346  0.33585  1.0000
  N   N119      1.0  0.40461  0.30343  0.34646  1.0000
  C   C146      1.0  0.60341  0.68734  0.34505  1.0000
  N   N120      1.0  0.57743  0.68139  0.33251  1.0000
  C   C147      1.0  0.55899  0.70066  0.32140  1.0000
  N   N121      1.0  0.56727  0.72603  0.32406  1.0000
  C   C148      1.0  0.59260  0.73339  0.33497  1.0000
  N   N122      1.0  0.61006  0.71335  0.34579  1.0000
  C   C149      1.0  0.18074  0.37535  0.34980  1.0000
  N   N123      1.0  0.15597  0.38503  0.35880  1.0000
  C   C150      1.0  0.13409  0.36930  0.35794  1.0000
  N   N124      1.0  0.13801  0.34286  0.34643  1.0000
  C   C151      1.0  0.16256  0.33244  0.33582  1.0000
  N   N125      1.0  0.18317  0.34917  0.33987  1.0000
  C   C152      1.0  0.83368  0.64006  0.35244  1.0000
  N   N126      1.0  0.85832  0.63002  0.36081  1.0000
  C   C153      1.0  0.88040  0.64545  0.35988  1.0000
  N   N127      1.0  0.87681  0.67196  0.34853  1.0000
  C   C154      1.0  0.85239  0.68273  0.33831  1.0000
  N   N128      1.0  0.83157  0.66626  0.34259  1.0000
  C   C155      1.0  0.63970  0.18182  0.35278  1.0000
  N   N129      1.0  0.62971  0.15716  0.36088  1.0000
  C   C156      1.0  0.64517  0.13510  0.35991  1.0000
  N   N130      1.0  0.67168  0.13874  0.34872  1.0000
  C   C157      1.0  0.68242  0.16319  0.33875  1.0000
  N   N131      1.0  0.66590  0.18397  0.34308  1.0000
  C   C158      1.0  0.37486  0.83472  0.35059  1.0000
  N   N132      1.0  0.38465  0.85946  0.35920  1.0000
  C   C159      1.0  0.36900  0.88140  0.35804  1.0000
  N   N133      1.0  0.34255  0.87757  0.34634  1.0000
  C   C160      1.0  0.33205  0.85306  0.33587  1.0000
  N   N134      1.0  0.34869  0.83238  0.34023  1.0000
  C   C161      1.0  0.83289  0.37609  0.35665  1.0000
  N   N135      1.0  0.85767  0.38534  0.34300  1.0000
  C   C162      1.0  0.87950  0.36958  0.34289  1.0000
  N   N136      1.0  0.87563  0.34330  0.35894  1.0000
  C   C163      1.0  0.85116  0.33316  0.37459  1.0000
  N   N137      1.0  0.83075  0.35010  0.37166  1.0000
  C   C164      1.0  0.18134  0.64032  0.35450  1.0000
  N   N138      1.0  0.15649  0.63127  0.34045  1.0000
  C   C165      1.0  0.13478  0.64724  0.34091  1.0000
  N   N139      1.0  0.13883  0.67343  0.35771  1.0000
  C   C166      1.0  0.16336  0.68332  0.37372  1.0000
  N   N140      1.0  0.18365  0.66625  0.37033  1.0000
  C   C167      1.0  0.37563  0.18250  0.35630  1.0000
  N   N141      1.0  0.38496  0.15776  0.34268  1.0000
  C   C168      1.0  0.36927  0.13587  0.34269  1.0000
  N   N142      1.0  0.34298  0.13966  0.35885  1.0000
  C   C169      1.0  0.33278  0.16410  0.37449  1.0000
  N   N143      1.0  0.34965  0.18457  0.37146  1.0000
  C   C170      1.0  0.63990  0.83408  0.35456  1.0000
  N   N144      1.0  0.63092  0.85896  0.34060  1.0000
  C   C171      1.0  0.64695  0.88062  0.34102  1.0000
  N   N145      1.0  0.67314  0.87650  0.35770  1.0000
  C   C172      1.0  0.68297  0.85193  0.37353  1.0000
  N   N146      1.0  0.66583  0.83169  0.37028  1.0000
  C   C173      1.0  0.16295  0.16184  0.38759  1.0000
  C   C174      1.0  0.16853  0.13720  0.42686  1.0000
  C   C175      1.0  0.14921  0.11733  0.43016  1.0000
  C   C176      1.0  0.12448  0.12286  0.38959  1.0000
  N   N147      1.0  0.15499  0.09446  0.47332  1.0000
  H   H67       1.0  0.17186  0.09194  0.50302  1.0000
  H   H68       1.0  0.14147  0.08169  0.48706  1.0000
  H   H69       1.0  0.18661  0.13379  0.45467  1.0000
  C   C177      1.0  0.85243  0.85369  0.38816  1.0000
  C   C178      1.0  0.84669  0.87832  0.42722  1.0000
  C   C179      1.0  0.86584  0.89836  0.43012  1.0000
  C   C180      1.0  0.89058  0.89299  0.38939  1.0000
  N   N148      1.0  0.85992  0.92121  0.47314  1.0000
  H   H70       1.0  0.84305  0.92362  0.50297  1.0000
  H   H71       1.0  0.87335  0.93410  0.48665  1.0000
  H   H72       1.0  0.82861  0.88163  0.45517  1.0000
  C   C181      1.0  0.85334  0.16338  0.38765  1.0000
  C   C182      1.0  0.87801  0.16903  0.42657  1.0000
  C   C183      1.0  0.89796  0.14979  0.42951  1.0000
  C   C184      1.0  0.89248  0.12507  0.38877  1.0000
  N   N149      1.0  0.92084  0.15562  0.47257  1.0000
  H   H73       1.0  0.92330  0.17248  0.50238  1.0000
  H   H74       1.0  0.93367  0.14214  0.48615  1.0000
  H   H75       1.0  0.88138  0.18710  0.45451  1.0000
  C   C185      1.0  0.16143  0.85285  0.38770  1.0000
  C   C186      1.0  0.13684  0.84721  0.42718  1.0000
  C   C187      1.0  0.11689  0.86644  0.43038  1.0000
  C   C188      1.0  0.12231  0.89114  0.38951  1.0000
  N   N150      1.0  0.09408  0.86061  0.47382  1.0000
  H   H76       1.0  0.09149  0.84366  0.50295  1.0000
  H   H77       1.0  0.08106  0.87398  0.48664  1.0000
  H   H78       1.0  0.13351  0.82914  0.45525  1.0000
  N   N151      1.0  0.10980  0.02090  0.37315  1.0000
  N   N152      1.0  0.10972  0.99523  0.37599  1.0000
  N   N153      1.0  0.90504  0.99513  0.37346  1.0000
  N   N154      1.0  0.90506  0.02081  0.37630  1.0000
  N   N155      1.0  0.99459  0.11038  0.37334  1.0000
  N   N156      1.0  0.02027  0.11037  0.37606  1.0000
  N   N157      1.0  0.02030  0.90570  0.37332  1.0000
  N   N158      1.0  0.99463  0.90575  0.37611  1.0000
  N   N159      1.0  0.16293  0.26173  0.37219  1.0000
  N   N160      1.0  0.15511  0.28628  0.36960  1.0000
  N   N161      1.0  0.85244  0.75350  0.37425  1.0000
  N   N162      1.0  0.86011  0.72889  0.37199  1.0000
  N   N163      1.0  0.75320  0.16335  0.37471  1.0000
  N   N164      1.0  0.72862  0.15560  0.37241  1.0000
  N   N165      1.0  0.26136  0.85287  0.37194  1.0000
  N   N166      1.0  0.28593  0.86063  0.36947  1.0000
  C   C189      1.0  0.84427  0.30632  0.38788  1.0000
  C   C190      1.0  0.82034  0.29926  0.43029  1.0000
  C   C191      1.0  0.81151  0.27299  0.43316  1.0000
  C   C192      1.0  0.82742  0.25376  0.39040  1.0000
  N   N167      1.0  0.78890  0.26752  0.47851  1.0000
  H   H79       1.0  0.77909  0.28128  0.50926  1.0000
  H   H80       1.0  0.78343  0.24966  0.49050  1.0000
  H   H81       1.0  0.80904  0.31346  0.46006  1.0000
  C   C193      1.0  0.17035  0.71008  0.38722  1.0000
  C   C194      1.0  0.19441  0.71702  0.42900  1.0000
  C   C195      1.0  0.20331  0.74326  0.43179  1.0000
  C   C196      1.0  0.18731  0.76254  0.38969  1.0000
  N   N168      1.0  0.22604  0.74866  0.47648  1.0000
  H   H82       1.0  0.23591  0.73486  0.50682  1.0000
  H   H83       1.0  0.23158  0.76651  0.48839  1.0000
  H   H84       1.0  0.20575  0.70277  0.45826  1.0000
  C   C197      1.0  0.30593  0.17089  0.38791  1.0000
  C   C198      1.0  0.29881  0.19482  0.43026  1.0000
  C   C199      1.0  0.27254  0.20362  0.43288  1.0000
  C   C200      1.0  0.25336  0.18767  0.39002  1.0000
  N   N169      1.0  0.26700  0.22623  0.47812  1.0000
  H   H85       1.0  0.28073  0.23608  0.50895  1.0000
  H   H86       1.0  0.24912  0.23169  0.48989  1.0000
  H   H87       1.0  0.31298  0.20615  0.46008  1.0000
  C   C201      1.0  0.70971  0.84485  0.38717  1.0000
  C   C202      1.0  0.71658  0.82081  0.42921  1.0000
  C   C203      1.0  0.74279  0.81185  0.43226  1.0000
  C   C204      1.0  0.76215  0.82776  0.39011  1.0000
  N   N170      1.0  0.74810  0.78916  0.47727  1.0000
  H   H88       1.0  0.73424  0.77922  0.50703  1.0000
  H   H89       1.0  0.76591  0.78340  0.48871  1.0000
  H   H90       1.0  0.70228  0.80953  0.45852  1.0000
  N   N171      1.0  0.36833  0.08891  0.36789  1.0000
  N   N172      1.0  0.37770  0.06478  0.36739  1.0000
  N   N173      1.0  0.64807  0.92751  0.36842  1.0000
  N   N174      1.0  0.63889  0.95173  0.36778  1.0000
  N   N175      1.0  0.92648  0.36859  0.36811  1.0000
  N   N176      1.0  0.95062  0.37794  0.36760  1.0000
  N   N177      1.0  0.08791  0.64830  0.36833  1.0000
  N   N178      1.0  0.06369  0.63911  0.36773  1.0000
  C   C205      1.0  0.61401  0.05700  0.36433  1.0000
  C   C206      1.0  0.59958  0.07751  0.40557  1.0000
  C   C207      1.0  0.60934  0.10353  0.41138  1.0000
  C   C208      1.0  0.63394  0.10926  0.36946  1.0000
  N   N179      1.0  0.59496  0.12118  0.45975  1.0000
  H   H91       1.0  0.57875  0.11598  0.48973  1.0000
  H   H92       1.0  0.60229  0.13780  0.47865  1.0000
  H   H93       1.0  0.58185  0.07328  0.43473  1.0000
  C   C209      1.0  0.39930  0.95978  0.36519  1.0000
  C   C210      1.0  0.41349  0.93941  0.40830  1.0000
  C   C211      1.0  0.40401  0.91329  0.41289  1.0000
  C   C212      1.0  0.37985  0.90735  0.36848  1.0000
  N   N180      1.0  0.41822  0.89573  0.46225  1.0000
  H   H94       1.0  0.43415  0.90105  0.49373  1.0000
  H   H95       1.0  0.41100  0.87894  0.47987  1.0000
  H   H96       1.0  0.43098  0.94377  0.43900  1.0000
  C   C213      1.0  0.05567  0.39953  0.36521  1.0000
  C   C214      1.0  0.07604  0.41373  0.40830  1.0000
  C   C215      1.0  0.10217  0.40426  0.41288  1.0000
  C   C216      1.0  0.10812  0.38010  0.36851  1.0000
  N   N181      1.0  0.11972  0.41849  0.46222  1.0000
  H   H97       1.0  0.11439  0.43442  0.49370  1.0000
  H   H98       1.0  0.13651  0.41127  0.47985  1.0000
  H   H99       1.0  0.07167  0.43122  0.43898  1.0000
  C   C217      1.0  0.95847  0.61427  0.36444  1.0000
  C   C218      1.0  0.93798  0.59987  0.40588  1.0000
  C   C219      1.0  0.91196  0.60964  0.41162  1.0000
  C   C220      1.0  0.90622  0.63421  0.36952  1.0000
  N   N182      1.0  0.89433  0.59530  0.46021  1.0000
  H   H100      1.0  0.89942  0.57898  0.48970  1.0000
  H   H101      1.0  0.87754  0.60242  0.47822  1.0000
  H   H102      1.0  0.94222  0.58217  0.43524  1.0000
  N   N183      1.0  0.49430  0.02630  0.35083  1.0000
  N   N184      1.0  0.52001  0.02664  0.35435  1.0000
  N   N185      1.0  0.98914  0.49453  0.35094  1.0000
  N   N186      1.0  0.98880  0.52024  0.35444  1.0000
  C   C221      1.0  0.20448  0.38938  0.36263  1.0000
  C   C222      1.0  0.22123  0.38272  0.43525  1.0000
  C   C223      1.0  0.24731  0.39223  0.43941  1.0000
  C   C224      1.0  0.25668  0.40755  0.36559  1.0000
  N   N187      1.0  0.26188  0.38704  0.51441  1.0000
  H   H103      1.0  0.25446  0.37745  0.56535  1.0000
  H   H104      1.0  0.27837  0.39602  0.52508  1.0000
  H   H105      1.0  0.21433  0.37078  0.48575  1.0000
  C   C225      1.0  0.80979  0.62629  0.36475  1.0000
  C   C226      1.0  0.79311  0.63289  0.43758  1.0000
  C   C227      1.0  0.76696  0.62355  0.44131  1.0000
  C   C228      1.0  0.75754  0.60847  0.36701  1.0000
  N   N188      1.0  0.75240  0.62865  0.51638  1.0000
  H   H106      1.0  0.75971  0.63834  0.56731  1.0000
  H   H107      1.0  0.73565  0.62009  0.52636  1.0000
  H   H108      1.0  0.80008  0.64465  0.48844  1.0000
  C   C229      1.0  0.62587  0.20568  0.36521  1.0000
  C   C230      1.0  0.63258  0.22247  0.43760  1.0000
  C   C231      1.0  0.62306  0.24854  0.44154  1.0000
  C   C232      1.0  0.60770  0.25783  0.36770  1.0000
  N   N189      1.0  0.62829  0.26318  0.51635  1.0000
  H   H109      1.0  0.63790  0.25581  0.56732  1.0000
  H   H110      1.0  0.61927  0.27966  0.52695  1.0000
  H   H111      1.0  0.64454  0.21561  0.48811  1.0000
  C   C233      1.0  0.38882  0.81093  0.36309  1.0000
  C   C234      1.0  0.38207  0.79416  0.43556  1.0000
  C   C235      1.0  0.39146  0.76803  0.43947  1.0000
  C   C236      1.0  0.40673  0.75865  0.36556  1.0000
  N   N190      1.0  0.38619  0.75342  0.51433  1.0000
  H   H112      1.0  0.37663  0.76084  0.56534  1.0000
  H   H113      1.0  0.39509  0.73688  0.52483  1.0000
  H   H114      1.0  0.37016  0.80107  0.48612  1.0000
  N   N191      1.0  0.76311  0.38964  0.36556  1.0000
  N   N192      1.0  0.78607  0.37846  0.37170  1.0000
  N   N193      1.0  0.25114  0.62675  0.36366  1.0000
  N   N194      1.0  0.22816  0.63789  0.36971  1.0000
  N   N195      1.0  0.38890  0.25234  0.36508  1.0000
  N   N196      1.0  0.37782  0.22933  0.37130  1.0000
  N   N197      1.0  0.62603  0.76434  0.36406  1.0000
  N   N198      1.0  0.63727  0.78728  0.37003  1.0000
  N   N199      1.0  0.33227  0.51848  0.37169  1.0000
  N   N200      1.0  0.33221  0.49268  0.37648  1.0000
  N   N201      1.0  0.68196  0.49791  0.37303  1.0000
  N   N202      1.0  0.68194  0.52372  0.37751  1.0000
  N   N203      1.0  0.49698  0.33354  0.37283  1.0000
  N   N204      1.0  0.52279  0.33343  0.37765  1.0000
  N   N205      1.0  0.51759  0.68324  0.37199  1.0000
  N   N206      1.0  0.49178  0.68319  0.37652  1.0000
  C   C237      1.0  0.39078  0.34867  0.35670  1.0000
  C   C238      1.0  0.36698  0.34242  0.40073  1.0000
  C   C239      1.0  0.34659  0.36111  0.41142  1.0000
  C   C240      1.0  0.34971  0.38642  0.37093  1.0000
  N   N207      1.0  0.32570  0.35398  0.46330  1.0000
  H   H115      1.0  0.32501  0.33687  0.49251  1.0000
  H   H116      1.0  0.31379  0.36703  0.48685  1.0000
  H   H117      1.0  0.36483  0.32422  0.42915  1.0000
  C   C241      1.0  0.62372  0.66806  0.35647  1.0000
  C   C242      1.0  0.64754  0.67425  0.40043  1.0000
  C   C243      1.0  0.66785  0.65549  0.41132  1.0000
  C   C244      1.0  0.66465  0.63016  0.37110  1.0000
  N   N208      1.0  0.68876  0.66264  0.46311  1.0000
  H   H118      1.0  0.68970  0.67988  0.49136  1.0000
  H   H119      1.0  0.70097  0.64977  0.48586  1.0000
  H   H120      1.0  0.64974  0.69247  0.42872  1.0000
  C   C245      1.0  0.66686  0.39176  0.35758  1.0000
  C   C246      1.0  0.67309  0.36797  0.40170  1.0000
  C   C247      1.0  0.65436  0.34763  0.41256  1.0000
  C   C248      1.0  0.62906  0.35078  0.37211  1.0000
  N   N209      1.0  0.66148  0.32673  0.46443  1.0000
  H   H121      1.0  0.67860  0.32602  0.49357  1.0000
  H   H122      1.0  0.64842  0.31486  0.48811  1.0000
  H   H123      1.0  0.69129  0.36581  0.43007  1.0000
  C   C249      1.0  0.34751  0.62467  0.35564  1.0000
  C   C250      1.0  0.34131  0.64849  0.39966  1.0000
  C   C251      1.0  0.36007  0.66882  0.41054  1.0000
  C   C252      1.0  0.38539  0.66565  0.37023  1.0000
  N   N210      1.0  0.35296  0.68972  0.46241  1.0000
  H   H124      1.0  0.33584  0.69045  0.49150  1.0000
  H   H125      1.0  0.36603  0.70157  0.48616  1.0000
  H   H126      1.0  0.32310  0.65069  0.42796  1.0000
