data_image0
_chemical_formula_structural       CH2CNHOC2HNOC6HNH3C3HOC7H2NH2NO2C7H2NH2NO2C6HNHNO2C6H3NO2C2HC3HNH2NOC2HC3HNH2NO2C7H2NH2NO2C7H2NH2NO2C2HC3HNH2NO2C2HC3HNH2NO2C7H2NH2NO2C7H2NH2NO2C7H2NH2NO2C7H2NH2NO2C2HC3HNH2NO2C2HC3HNH2NO2C2HCNH2OC2HC3HNH2NO2C6H3C6H3C6H3C6H3C6H3C6H3C6H3C6H3C4H3C2H2C6H3C6H3C2HC3HNH2NO2C2HC3HNH2NO2C2HC3H2NO2C2HC3NHNO2C7H2NH2NO2C7H2NH2NO2C2HC3HNH2NO2C2HC3HNH2NO2C7H2NH2NO2C7H2NH2NO2C2HC3HNH2NO2C2HC3HNH2NO2C2HC3HNH2NO2C2HC3HNH2NO2C7H2NH2NO2C7H2NH2NO2C4HNH2NOC7H2NH2NO2
_chemical_formula_sum              "C288 H180 N72 O72"
_cell_length_a       32.3628
_cell_length_b       83.9143
_cell_length_c       14.877
_cell_angle_alpha    90
_cell_angle_beta     90
_cell_angle_gamma    90

_space_group_name_H-M_alt    "P 1"
_space_group_IT_number       1

loop_
  _space_group_symop_operation_xyz
  'x, y, z'

loop_
  _atom_site_type_symbol
  _atom_site_label
  _atom_site_symmetry_multiplicity
  _atom_site_fract_x
  _atom_site_fract_y
  _atom_site_fract_z
  _atom_site_occupancy
  C   C1        1.0  0.02534  0.67213  0.34556  1.0000
  H   H1        1.0  0.03523  0.65649  0.23634  1.0000
  H   H2        1.0  0.01128  0.68861  0.19678  1.0000
  C   C2        1.0  0.02686  0.33624  0.33588  1.0000
  N   N1        1.0  0.02715  0.32018  0.19840  1.0000
  H   H3        1.0  0.04202  0.31454  0.15128  1.0000
  O   O1        1.0  0.04358  0.12451  0.18349  1.0000
  C   C3        1.0  0.02275  0.03816  0.27408  1.0000
  C   C4        1.0  0.02160  0.02125  0.27691  1.0000
  H   H4        1.0  0.03563  0.01501  0.22620  1.0000
  N   N2        1.0  0.04165  0.04620  0.20114  1.0000
  O   O2        1.0  0.02429  0.04291  0.12788  1.0000
  C   C5        1.0  0.04147  0.09005  0.33982  1.0000
  C   C6        1.0  0.04096  0.07317  0.34131  1.0000
  C   C7        1.0  0.00481  0.91007  0.34362  1.0000
  C   C8        1.0  0.04298  0.91823  0.34599  1.0000
  C   C9        1.0  0.04235  0.93511  0.34457  1.0000
  C   C10       1.0  0.00478  0.94391  0.34521  1.0000
  H   H5        1.0  0.00481  0.89786  0.34321  1.0000
  N   N3        1.0  0.02487  0.69109  0.47067  1.0000
  H   H6        1.0  0.03948  0.69777  0.51371  1.0000
  H   H7        1.0  0.03609  0.34939  0.45543  1.0000
  H   H8        1.0  0.01291  0.31649  0.47135  1.0000
  C   C11       1.0  0.00461  0.96116  0.34608  1.0000
  C   C12       1.0  0.02765  0.97030  0.40914  1.0000
  C   C13       1.0  0.02601  0.98721  0.40676  1.0000
  H   H9        1.0  0.04283  0.99350  0.45306  1.0000
  O   O3        1.0  0.03785  0.96568  0.55392  1.0000
  C   C14       1.0  0.61387  0.17360  0.34849  1.0000
  C   C15       1.0  0.59336  0.16406  0.28351  1.0000
  C   C16       1.0  0.54961  0.16312  0.28400  1.0000
  C   C17       1.0  0.52534  0.17185  0.34586  1.0000
  C   C18       1.0  0.48134  0.17170  0.33600  1.0000
  C   C19       1.0  0.46091  0.17993  0.26504  1.0000
  C   C20       1.0  0.41715  0.18033  0.26444  1.0000
  H   H10       1.0  0.40252  0.18652  0.21429  1.0000
  H   H11       1.0  0.53526  0.15651  0.23525  1.0000
  N   N4        1.0  0.48152  0.18798  0.19934  1.0000
  H   H12       1.0  0.51146  0.18863  0.19804  1.0000
  H   H13       1.0  0.46681  0.19371  0.15229  1.0000
  N   N5        1.0  0.61661  0.15632  0.21570  1.0000
  O   O4        1.0  0.61133  0.14149  0.21779  1.0000
  O   O5        1.0  0.60738  0.16134  0.13867  1.0000
  C   C21       1.0  0.39429  0.83463  0.34712  1.0000
  C   C22       1.0  0.41495  0.84413  0.28217  1.0000
  C   C23       1.0  0.45870  0.84506  0.28314  1.0000
  C   C24       1.0  0.48282  0.83636  0.34538  1.0000
  C   C25       1.0  0.52684  0.83649  0.33600  1.0000
  C   C26       1.0  0.54743  0.82826  0.26528  1.0000
  C   C27       1.0  0.59119  0.82785  0.26518  1.0000
  H   H14       1.0  0.60593  0.82168  0.21511  1.0000
  H   H15       1.0  0.47318  0.85164  0.23440  1.0000
  N   N6        1.0  0.52696  0.82021  0.19936  1.0000
  H   H16       1.0  0.49703  0.81956  0.19774  1.0000
  H   H17       1.0  0.54178  0.81447  0.15250  1.0000
  N   N7        1.0  0.39187  0.85183  0.21396  1.0000
  O   O6        1.0  0.39716  0.86666  0.21582  1.0000
  O   O7        1.0  0.40127  0.84676  0.13713  1.0000
  C   C28       1.0  0.11390  0.67385  0.34808  1.0000
  C   C29       1.0  0.09336  0.66414  0.28394  1.0000
  C   C30       1.0  0.04960  0.66324  0.28446  1.0000
  C   C31       1.0  0.98133  0.67195  0.33590  1.0000
  C   C32       1.0  0.96080  0.68005  0.26459  1.0000
  C   C33       1.0  0.91704  0.68043  0.26417  1.0000
  H   H18       1.0  0.90233  0.68653  0.21379  1.0000
  N   N8        1.0  0.98134  0.68797  0.19833  1.0000
  H   H19       1.0  0.96657  0.69361  0.15099  1.0000
  N   N9        1.0  0.11660  0.65619  0.21692  1.0000
  O   O8        1.0  0.11123  0.64137  0.22037  1.0000
  O   O9        1.0  0.10744  0.66100  0.13942  1.0000
  C   C34       1.0  0.89426  0.33437  0.34672  1.0000
  C   C35       1.0  0.91496  0.34403  0.28257  1.0000
  C   C36       1.0  0.95872  0.34493  0.28355  1.0000
  C   C37       1.0  0.98283  0.33606  0.34506  1.0000
  C   C38       1.0  0.04754  0.32812  0.26484  1.0000
  C   C39       1.0  0.09130  0.32774  0.26491  1.0000
  H   H20       1.0  0.10612  0.32165  0.21463  1.0000
  H   H21       1.0  0.97321  0.35164  0.23541  1.0000
  H   H22       1.0  0.99722  0.31954  0.19656  1.0000
  N   N10       1.0  0.89189  0.35194  0.21511  1.0000
  O   O10       1.0  0.89728  0.36676  0.21827  1.0000
  O   O11       1.0  0.90122  0.34707  0.13783  1.0000
  C   C40       1.0  0.21642  0.13060  0.27914  1.0000
  C   C41       1.0  0.24654  0.14289  0.28192  1.0000
  H   H23       1.0  0.26944  0.14292  0.23438  1.0000
  C   C42       1.0  0.07901  0.09911  0.33602  1.0000
  C   C43       1.0  0.08679  0.11013  0.26565  1.0000
  C   C44       1.0  0.12205  0.12010  0.26983  1.0000
  H   H24       1.0  0.12672  0.12817  0.21912  1.0000
  N   N11       1.0  0.22021  0.11901  0.21564  1.0000
  H   H25       1.0  0.24304  0.11901  0.17301  1.0000
  H   H26       1.0  0.20146  0.10999  0.21301  1.0000
  N   N12       1.0  0.05938  0.11090  0.19148  1.0000
  O   O12       1.0  0.07737  0.10738  0.11931  1.0000
  C   C45       1.0  0.79153  0.87775  0.28226  1.0000
  C   C46       1.0  0.76148  0.86544  0.28472  1.0000
  H   H27       1.0  0.73854  0.86543  0.23725  1.0000
  C   C47       1.0  0.92907  0.90917  0.33836  1.0000
  C   C48       1.0  0.92096  0.89823  0.26770  1.0000
  C   C49       1.0  0.88572  0.88826  0.27221  1.0000
  H   H28       1.0  0.88082  0.88027  0.22125  1.0000
  N   N13       1.0  0.78762  0.88941  0.21917  1.0000
  H   H29       1.0  0.76475  0.88944  0.17667  1.0000
  H   H30       1.0  0.80629  0.89846  0.21685  1.0000
  N   N14       1.0  0.94800  0.89756  0.19287  1.0000
  O   O13       1.0  0.92967  0.90116  0.12124  1.0000
  O   O14       1.0  0.96376  0.88396  0.18399  1.0000
  C   C50       1.0  0.76094  0.15522  0.33711  1.0000
  C   C51       1.0  0.79277  0.15464  0.27133  1.0000
  C   C52       1.0  0.82316  0.14251  0.27551  1.0000
  C   C53       1.0  0.82266  0.13057  0.34257  1.0000
  C   C54       1.0  0.85605  0.11929  0.34451  1.0000
  C   C55       1.0  0.86306  0.10778  0.27571  1.0000
  C   C56       1.0  0.89861  0.09789  0.28074  1.0000
  H   H31       1.0  0.90418  0.08993  0.22991  1.0000
  H   H32       1.0  0.84621  0.14248  0.22830  1.0000
  N   N15       1.0  0.83672  0.10581  0.20523  1.0000
  H   H33       1.0  0.81120  0.11183  0.20024  1.0000
  H   H34       1.0  0.84177  0.09780  0.15921  1.0000
  N   N16       1.0  0.79327  0.16595  0.20057  1.0000
  O   O15       1.0  0.82617  0.17392  0.20011  1.0000
  O   O16       1.0  0.78904  0.15938  0.12525  1.0000
  C   C57       1.0  0.24726  0.85306  0.33413  1.0000
  C   C58       1.0  0.21530  0.85353  0.26864  1.0000
  C   C59       1.0  0.18493  0.86568  0.27250  1.0000
  C   C60       1.0  0.18558  0.87774  0.33889  1.0000
  C   C61       1.0  0.15213  0.88899  0.34083  1.0000
  C   C62       1.0  0.14457  0.90031  0.27129  1.0000
  C   C63       1.0  0.10898  0.91018  0.27661  1.0000
  H   H35       1.0  0.10305  0.91802  0.22542  1.0000
  H   H36       1.0  0.16174  0.86562  0.22560  1.0000
  N   N17       1.0  0.17044  0.90213  0.19986  1.0000
  H   H37       1.0  0.19599  0.89614  0.19461  1.0000
  H   H38       1.0  0.16502  0.91002  0.15335  1.0000
  N   N18       1.0  0.21463  0.84212  0.19843  1.0000
  O   O17       1.0  0.18172  0.83416  0.19862  1.0000
  O   O18       1.0  0.21874  0.84858  0.12275  1.0000
  C   C64       1.0  0.71654  0.63052  0.27728  1.0000
  C   C65       1.0  0.74668  0.64281  0.27994  1.0000
  H   H39       1.0  0.76966  0.64281  0.23258  1.0000
  C   C66       1.0  0.57896  0.59910  0.33526  1.0000
  C   C67       1.0  0.58671  0.61006  0.26454  1.0000
  C   C68       1.0  0.62204  0.62001  0.26822  1.0000
  H   H40       1.0  0.62667  0.62803  0.21728  1.0000
  N   N19       1.0  0.72038  0.61889  0.21406  1.0000
  H   H41       1.0  0.74325  0.61886  0.17153  1.0000
  H   H42       1.0  0.70160  0.60988  0.21148  1.0000
  N   N20       1.0  0.55919  0.61079  0.19058  1.0000
  O   O19       1.0  0.57704  0.60720  0.11835  1.0000
  O   O20       1.0  0.54344  0.62440  0.18236  1.0000
  C   C69       1.0  0.29144  0.37782  0.28029  1.0000
  C   C70       1.0  0.26137  0.36551  0.28265  1.0000
  H   H43       1.0  0.23837  0.36554  0.23533  1.0000
  C   C71       1.0  0.42913  0.40917  0.33756  1.0000
  C   C72       1.0  0.42107  0.39829  0.26657  1.0000
  C   C73       1.0  0.38576  0.38835  0.27057  1.0000
  H   H44       1.0  0.38091  0.38039  0.21941  1.0000
  N   N21       1.0  0.28749  0.38951  0.21743  1.0000
  H   H45       1.0  0.26459  0.38957  0.17500  1.0000
  H   H46       1.0  0.30620  0.39855  0.21514  1.0000
  N   N22       1.0  0.44826  0.39765  0.19198  1.0000
  O   O21       1.0  0.43009  0.40132  0.12026  1.0000
  O   O22       1.0  0.46397  0.38404  0.18295  1.0000
  C   C74       1.0  0.26095  0.65525  0.33932  1.0000
  C   C75       1.0  0.29284  0.65469  0.27365  1.0000
  C   C76       1.0  0.32318  0.64254  0.27777  1.0000
  C   C77       1.0  0.32259  0.63056  0.34462  1.0000
  C   C78       1.0  0.35592  0.61926  0.34633  1.0000
  C   C79       1.0  0.36291  0.60781  0.27718  1.0000
  C   C80       1.0  0.39849  0.59793  0.28177  1.0000
  H   H47       1.0  0.40403  0.59002  0.23070  1.0000
  H   H48       1.0  0.34627  0.64252  0.23065  1.0000
  N   N23       1.0  0.33651  0.60590  0.20674  1.0000
  H   H49       1.0  0.31097  0.61191  0.20204  1.0000
  H   H50       1.0  0.34154  0.59793  0.16047  1.0000
  N   N24       1.0  0.29346  0.66603  0.20303  1.0000
  O   O23       1.0  0.32637  0.67398  0.20281  1.0000
  O   O24       1.0  0.28928  0.65949  0.12759  1.0000
  C   C81       1.0  0.74726  0.35302  0.33635  1.0000
  C   C82       1.0  0.71524  0.35349  0.27098  1.0000
  C   C83       1.0  0.68491  0.36565  0.27478  1.0000
  C   C84       1.0  0.68568  0.37775  0.34094  1.0000
  C   C85       1.0  0.65229  0.38903  0.34267  1.0000
  C   C86       1.0  0.64474  0.40029  0.27276  1.0000
  C   C87       1.0  0.60913  0.41015  0.27764  1.0000
  H   H51       1.0  0.60321  0.41794  0.22620  1.0000
  H   H52       1.0  0.66169  0.36559  0.22797  1.0000
  N   N25       1.0  0.67065  0.40205  0.20136  1.0000
  H   H53       1.0  0.69623  0.39606  0.19639  1.0000
  H   H54       1.0  0.66525  0.40989  0.15459  1.0000
  N   N26       1.0  0.71445  0.34205  0.20091  1.0000
  O   O25       1.0  0.68151  0.33410  0.20135  1.0000
  O   O26       1.0  0.71850  0.34847  0.12513  1.0000
  C   C88       1.0  0.28101  0.21292  0.33783  1.0000
  C   C89       1.0  0.25284  0.21932  0.27416  1.0000
  C   C90       1.0  0.24365  0.23581  0.27590  1.0000
  C   C91       1.0  0.26247  0.24625  0.33824  1.0000
  C   C92       1.0  0.25159  0.26272  0.33565  1.0000
  C   C93       1.0  0.26492  0.27323  0.26631  1.0000
  C   C94       1.0  0.25262  0.28943  0.27006  1.0000
  H   H55       1.0  0.26170  0.29700  0.21970  1.0000
  H   H56       1.0  0.22331  0.24028  0.22951  1.0000
  N   N27       1.0  0.28946  0.26841  0.19714  1.0000
  H   H57       1.0  0.29966  0.25755  0.19266  1.0000
  H   H58       1.0  0.29849  0.27582  0.15080  1.0000
  N   N28       1.0  0.23550  0.20930  0.20742  1.0000
  O   O27       1.0  0.19673  0.20907  0.21208  1.0000
  O   O28       1.0  0.24587  0.21361  0.12973  1.0000
  C   C95       1.0  0.72732  0.79532  0.33883  1.0000
  C   C96       1.0  0.75555  0.78899  0.27512  1.0000
  C   C97       1.0  0.76477  0.77249  0.27647  1.0000
  C   C98       1.0  0.74590  0.76200  0.33842  1.0000
  C   C99       1.0  0.75679  0.74553  0.33543  1.0000
  C   C100      1.0  0.74350  0.73508  0.26576  1.0000
  C   C101      1.0  0.75578  0.71887  0.26911  1.0000
  H   H59       1.0  0.74672  0.71135  0.21855  1.0000
  H   H60       1.0  0.78514  0.76806  0.23003  1.0000
  N   N29       1.0  0.71900  0.73996  0.19664  1.0000
  H   H61       1.0  0.70881  0.75082  0.19241  1.0000
  H   H62       1.0  0.71000  0.73259  0.15007  1.0000
  N   N30       1.0  0.77294  0.79906  0.20873  1.0000
  O   O29       1.0  0.81170  0.79930  0.21357  1.0000
  O   O30       1.0  0.76265  0.79481  0.13087  1.0000
  C   C102      1.0  0.71758  0.23987  0.27227  1.0000
  C   C103      1.0  0.70901  0.22333  0.27420  1.0000
  H   H63       1.0  0.68887  0.21876  0.22772  1.0000
  C   C104      1.0  0.78086  0.29540  0.33547  1.0000
  C   C105      1.0  0.79370  0.28490  0.26611  1.0000
  C   C106      1.0  0.78156  0.26872  0.26920  1.0000
  H   H64       1.0  0.79110  0.26126  0.21878  1.0000
  N   N31       1.0  0.69788  0.24907  0.21021  1.0000
  H   H65       1.0  0.67838  0.24448  0.16762  1.0000
  H   H66       1.0  0.70142  0.26055  0.20805  1.0000
  N   N32       1.0  0.81748  0.29080  0.19337  1.0000
  O   O31       1.0  0.79865  0.28933  0.11997  1.0000
  O   O32       1.0  0.85171  0.28380  0.18752  1.0000
  C   C107      1.0  0.29056  0.76833  0.27200  1.0000
  C   C108      1.0  0.29914  0.78487  0.27348  1.0000
  H   H67       1.0  0.31933  0.78939  0.22696  1.0000
  C   C109      1.0  0.22723  0.71285  0.33657  1.0000
  C   C110      1.0  0.21444  0.72329  0.26685  1.0000
  C   C111      1.0  0.22657  0.73947  0.26951  1.0000
  H   H68       1.0  0.21707  0.74689  0.21884  1.0000
  N   N33       1.0  0.31032  0.75906  0.21031  1.0000
  H   H69       1.0  0.32987  0.76361  0.16768  1.0000
  H   H70       1.0  0.30677  0.74758  0.20848  1.0000
  N   N34       1.0  0.19074  0.71731  0.19418  1.0000
  O   O33       1.0  0.20964  0.71872  0.12082  1.0000
  O   O34       1.0  0.15651  0.72431  0.18797  1.0000
  C   C112      1.0  0.97807  0.98657  0.28076  1.0000
  C   C113      1.0  0.98024  0.96966  0.28304  1.0000
  H   H71       1.0  0.96357  0.96332  0.23671  1.0000
  C   C114      1.0  0.00342  0.04720  0.34308  1.0000
  N   N35       1.0  0.95287  0.99357  0.21899  1.0000
  H   H72       1.0  0.93667  0.98724  0.17699  1.0000
  H   H73       1.0  0.94919  0.00505  0.21623  1.0000
  O   O35       1.0  0.07937  0.04281  0.19503  1.0000
  C   C115      1.0  0.47821  0.48657  0.28050  1.0000
  C   C116      1.0  0.48041  0.46965  0.28278  1.0000
  H   H74       1.0  0.46385  0.46331  0.23627  1.0000
  C   C117      1.0  0.50338  0.54721  0.34308  1.0000
  C   C118      1.0  0.52271  0.53817  0.27410  1.0000
  C   C119      1.0  0.52158  0.52125  0.27693  1.0000
  H   H75       1.0  0.53562  0.51501  0.22624  1.0000
  N   N36       1.0  0.45314  0.49356  0.21847  1.0000
  H   H76       1.0  0.43704  0.48722  0.17630  1.0000
  H   H77       1.0  0.44942  0.50503  0.21572  1.0000
  N   N37       1.0  0.54161  0.54620  0.20113  1.0000
  O   O36       1.0  0.52425  0.54290  0.12788  1.0000
  O   O37       1.0  0.57933  0.54281  0.19502  1.0000
  C   C120      1.0  0.29325  0.19651  0.33744  1.0000
  C   C121      1.0  0.33561  0.19246  0.33478  1.0000
  C   C122      1.0  0.34934  0.17646  0.33534  1.0000
  C   C123      1.0  0.31917  0.16425  0.33969  1.0000
  C   C124      1.0  0.27626  0.16773  0.34309  1.0000
  C   C125      1.0  0.26411  0.18396  0.34092  1.0000
  H   H78       1.0  0.32867  0.15261  0.34050  1.0000
  H   H79       1.0  0.23334  0.18674  0.34236  1.0000
  H   H80       1.0  0.35708  0.20144  0.33229  1.0000
  C   C126      1.0  0.71502  0.81173  0.33876  1.0000
  C   C127      1.0  0.67264  0.81575  0.33592  1.0000
  C   C128      1.0  0.65885  0.83174  0.33669  1.0000
  C   C129      1.0  0.68897  0.84397  0.34151  1.0000
  C   C130      1.0  0.73189  0.84052  0.34515  1.0000
  C   C131      1.0  0.74410  0.82429  0.34269  1.0000
  H   H81       1.0  0.67943  0.85560  0.34245  1.0000
  H   H82       1.0  0.77488  0.82153  0.34420  1.0000
  H   H83       1.0  0.65122  0.80677  0.33309  1.0000
  C   C132      1.0  0.71408  0.19656  0.34026  1.0000
  C   C133      1.0  0.67164  0.19263  0.34302  1.0000
  C   C134      1.0  0.65754  0.17667  0.34542  1.0000
  C   C135      1.0  0.68759  0.16437  0.34359  1.0000
  C   C136      1.0  0.73055  0.16773  0.33916  1.0000
  C   C137      1.0  0.74299  0.18392  0.33869  1.0000
  H   H84       1.0  0.67799  0.15276  0.34530  1.0000
  H   H85       1.0  0.77382  0.18661  0.33684  1.0000
  H   H86       1.0  0.65039  0.20169  0.34375  1.0000
  C   C138      1.0  0.29404  0.81170  0.33873  1.0000
  C   C139      1.0  0.33648  0.81561  0.34164  1.0000
  C   C140      1.0  0.35061  0.83157  0.34370  1.0000
  C   C141      1.0  0.32059  0.84387  0.34125  1.0000
  C   C142      1.0  0.27763  0.84053  0.33665  1.0000
  C   C143      1.0  0.26516  0.82434  0.33665  1.0000
  H   H87       1.0  0.33022  0.85549  0.34268  1.0000
  H   H88       1.0  0.23433  0.82166  0.33480  1.0000
  H   H89       1.0  0.35771  0.80655  0.34279  1.0000
  C   C144      1.0  0.79314  0.69647  0.33760  1.0000
  C   C145      1.0  0.83552  0.69255  0.33549  1.0000
  C   C146      1.0  0.84932  0.67656  0.33524  1.0000
  C   C147      1.0  0.81923  0.66429  0.33862  1.0000
  C   C148      1.0  0.77626  0.66771  0.34079  1.0000
  C   C149      1.0  0.76398  0.68393  0.33824  1.0000
  H   H90       1.0  0.82883  0.65267  0.33947  1.0000
  H   H91       1.0  0.73318  0.68672  0.33796  1.0000
  H   H92       1.0  0.85685  0.70158  0.33420  1.0000
  C   C150      1.0  0.21515  0.31177  0.33893  1.0000
  C   C151      1.0  0.17275  0.31567  0.33662  1.0000
  C   C152      1.0  0.15889  0.33165  0.33655  1.0000
  C   C153      1.0  0.18893  0.34393  0.34038  1.0000
  C   C154      1.0  0.23192  0.34053  0.34281  1.0000
  C   C155      1.0  0.24426  0.32432  0.34001  1.0000
  H   H93       1.0  0.17928  0.35555  0.34133  1.0000
  H   H94       1.0  0.27507  0.32155  0.33981  1.0000
  H   H95       1.0  0.15147  0.30662  0.33499  1.0000
  C   C156      1.0  0.21432  0.69658  0.33942  1.0000
  C   C157      1.0  0.17186  0.69277  0.34166  1.0000
  C   C158      1.0  0.15762  0.67684  0.34513  1.0000
  C   C159      1.0  0.18759  0.66450  0.34454  1.0000
  C   C160      1.0  0.23061  0.66778  0.34121  1.0000
  C   C161      1.0  0.24322  0.68396  0.34088  1.0000
  H   H96       1.0  0.17788  0.65289  0.34655  1.0000
  H   H97       1.0  0.27408  0.68665  0.34072  1.0000
  H   H98       1.0  0.15078  0.70189  0.34113  1.0000
  C   C162      1.0  0.79380  0.31167  0.33790  1.0000
  C   C163      1.0  0.83627  0.31546  0.34029  1.0000
  C   C164      1.0  0.85054  0.33140  0.34340  1.0000
  C   C165      1.0  0.82061  0.34375  0.34220  1.0000
  C   C166      1.0  0.77757  0.34048  0.33869  1.0000
  C   C167      1.0  0.76493  0.32431  0.33884  1.0000
  H   H99       1.0  0.83034  0.35535  0.34393  1.0000
  H   H100      1.0  0.73407  0.32162  0.33869  1.0000
  H   H101      1.0  0.85733  0.30634  0.34017  1.0000
  C   C168      1.0  0.00328  0.09818  0.34366  1.0000
  C   C169      1.0  0.96514  0.09001  0.34814  1.0000
  C   C170      1.0  0.96579  0.07312  0.34695  1.0000
  C   C171      1.0  0.00341  0.06440  0.34363  1.0000
  H   H102      1.0  0.93832  0.06708  0.34886  1.0000
  H   H103      1.0  0.06850  0.06717  0.33985  1.0000
  H   H104      1.0  0.00325  0.11040  0.34331  1.0000
  C   C172      1.0  0.96663  0.91822  0.34153  1.0000
  C   C173      1.0  0.96721  0.93511  0.34398  1.0000
  H   H105      1.0  0.06991  0.94109  0.34389  1.0000
  H   H106      1.0  0.93963  0.94109  0.34416  1.0000
  C   C174      1.0  0.54141  0.59006  0.33949  1.0000
  C   C175      1.0  0.50323  0.59820  0.34374  1.0000
  C   C176      1.0  0.46511  0.59002  0.34860  1.0000
  C   C177      1.0  0.46576  0.57313  0.34736  1.0000
  C   C178      1.0  0.50337  0.56441  0.34365  1.0000
  C   C179      1.0  0.54092  0.57318  0.34098  1.0000
  H   H107      1.0  0.43829  0.56709  0.34954  1.0000
  H   H108      1.0  0.56845  0.56718  0.33926  1.0000
  H   H109      1.0  0.50321  0.61041  0.34341  1.0000
  C   C180      1.0  0.46670  0.41822  0.34115  1.0000
  C   C181      1.0  0.50488  0.41007  0.34371  1.0000
  C   C182      1.0  0.54304  0.41823  0.34649  1.0000
  C   C183      1.0  0.54240  0.43511  0.34505  1.0000
  C   C184      1.0  0.50482  0.44391  0.34524  1.0000
  C   C185      1.0  0.46727  0.43510  0.34357  1.0000
  H   H110      1.0  0.56996  0.44109  0.34467  1.0000
  H   H111      1.0  0.43969  0.44108  0.34343  1.0000
  H   H112      1.0  0.50489  0.39785  0.34332  1.0000
  C   C186      1.0  0.54561  0.18129  0.41207  1.0000
  C   C187      1.0  0.58936  0.18171  0.41284  1.0000
  H   H113      1.0  0.60381  0.18867  0.45994  1.0000
  C   C188      1.0  0.39289  0.17329  0.33299  1.0000
  C   C189      1.0  0.41348  0.16493  0.40279  1.0000
  C   C190      1.0  0.45724  0.16406  0.40256  1.0000
  H   H114      1.0  0.47171  0.15835  0.45468  1.0000
  N   N38       1.0  0.52483  0.19043  0.47279  1.0000
  H   H115      1.0  0.53943  0.19698  0.51646  1.0000
  H   H116      1.0  0.49490  0.19111  0.47331  1.0000
  N   N39       1.0  0.39025  0.15840  0.47455  1.0000
  O   O38       1.0  0.39945  0.16477  0.54837  1.0000
  O   O39       1.0  0.39565  0.14362  0.48079  1.0000
  C   C191      1.0  0.46239  0.82697  0.41155  1.0000
  C   C192      1.0  0.41863  0.82655  0.41187  1.0000
  H   H117      1.0  0.40407  0.81963  0.45899  1.0000
  C   C193      1.0  0.61530  0.83490  0.33397  1.0000
  C   C194      1.0  0.59455  0.84326  0.40352  1.0000
  C   C195      1.0  0.55080  0.84414  0.40282  1.0000
  H   H118      1.0  0.53622  0.84986  0.45473  1.0000
  N   N40       1.0  0.48301  0.81785  0.47264  1.0000
  H   H119      1.0  0.46830  0.81132  0.51626  1.0000
  H   H120      1.0  0.51294  0.81715  0.47345  1.0000
  N   N41       1.0  0.61762  0.84980  0.47550  1.0000
  O   O40       1.0  0.60825  0.84345  0.54925  1.0000
  O   O41       1.0  0.61220  0.86459  0.48162  1.0000
  C   C196      1.0  0.04564  0.68177  0.41082  1.0000
  C   C197      1.0  0.08939  0.68218  0.41156  1.0000
  H   H121      1.0  0.10385  0.68926  0.45807  1.0000
  C   C198      1.0  0.89288  0.67345  0.33311  1.0000
  C   C199      1.0  0.91355  0.66525  0.40332  1.0000
  C   C200      1.0  0.95731  0.66442  0.40304  1.0000
  H   H122      1.0  0.97185  0.65882  0.45543  1.0000
  H   H123      1.0  0.99494  0.69178  0.47116  1.0000
  N   N42       1.0  0.89035  0.65882  0.47541  1.0000
  O   O42       1.0  0.89949  0.66534  0.54884  1.0000
  O   O43       1.0  0.89587  0.64406  0.48255  1.0000
  C   C201      1.0  0.96237  0.32648  0.41032  1.0000
  C   C202      1.0  0.91861  0.32608  0.41062  1.0000
  H   H124      1.0  0.90404  0.31905  0.45716  1.0000
  C   C203      1.0  0.11532  0.33473  0.33401  1.0000
  C   C204      1.0  0.09449  0.34294  0.40397  1.0000
  C   C205      1.0  0.05074  0.34377  0.40325  1.0000
  N   N43       1.0  0.98298  0.31718  0.47057  1.0000
  H   H125      1.0  0.96826  0.31053  0.51358  1.0000
  N   N44       1.0  0.11753  0.34939  0.47627  1.0000
  O   O44       1.0  0.10824  0.34288  0.54964  1.0000
  O   O45       1.0  0.11197  0.36416  0.48325  1.0000
  C   C206      1.0  0.24567  0.15529  0.34646  1.0000
  C   C207      1.0  0.21337  0.15513  0.41122  1.0000
  C   C208      1.0  0.18288  0.14301  0.40818  1.0000
  C   C209      1.0  0.18372  0.13070  0.34330  1.0000
  C   C210      1.0  0.15029  0.11944  0.34227  1.0000
  C   C211      1.0  0.14292  0.10825  0.41261  1.0000
  C   C212      1.0  0.10747  0.09831  0.40801  1.0000
  H   H126      1.0  0.10164  0.09058  0.45979  1.0000
  H   H127      1.0  0.15951  0.14327  0.45460  1.0000
  N   N45       1.0  0.16882  0.10665  0.48415  1.0000
  H   H128      1.0  0.19424  0.11274  0.48905  1.0000
  H   H129      1.0  0.16351  0.09886  0.53124  1.0000
  N   N46       1.0  0.21248  0.16682  0.47994  1.0000
  O   O46       1.0  0.17966  0.17483  0.47792  1.0000
  O   O47       1.0  0.21612  0.16066  0.55651  1.0000
  C   C213      1.0  0.76243  0.85297  0.34886  1.0000
  C   C214      1.0  0.79476  0.85310  0.41356  1.0000
  C   C215      1.0  0.82521  0.86523  0.41078  1.0000
  C   C216      1.0  0.82429  0.87760  0.34626  1.0000
  C   C217      1.0  0.85776  0.88884  0.34521  1.0000
  C   C218      1.0  0.86547  0.89993  0.41587  1.0000
  C   C219      1.0  0.90093  0.90987  0.41100  1.0000
  H   H130      1.0  0.90698  0.91754  0.46293  1.0000
  H   H131      1.0  0.84864  0.86493  0.45707  1.0000
  N   N47       1.0  0.83987  0.90145  0.48796  1.0000
  H   H132      1.0  0.81443  0.89538  0.49307  1.0000
  H   H133      1.0  0.84539  0.90917  0.53528  1.0000
  N   N48       1.0  0.79573  0.84135  0.48196  1.0000
  O   O48       1.0  0.82858  0.83336  0.47968  1.0000
  O   O49       1.0  0.79209  0.84744  0.55870  1.0000
  C   C220      1.0  0.79042  0.13088  0.40781  1.0000
  C   C221      1.0  0.76039  0.14319  0.40383  1.0000
  H   H134      1.0  0.73780  0.14353  0.45206  1.0000
  C   C222      1.0  0.92753  0.09905  0.35172  1.0000
  C   C223      1.0  0.92005  0.11038  0.42071  1.0000
  C   C224      1.0  0.88472  0.12030  0.41603  1.0000
  H   H135      1.0  0.88031  0.12860  0.46565  1.0000
  N   N49       1.0  0.78699  0.11966  0.47350  1.0000
  H   H136      1.0  0.76448  0.11993  0.51687  1.0000
  H   H137      1.0  0.80567  0.11063  0.47710  1.0000
  N   N50       1.0  0.94781  0.11150  0.49411  1.0000
  O   O50       1.0  0.93021  0.10828  0.56717  1.0000
  O   O51       1.0  0.96355  0.12516  0.49985  1.0000
  C   C225      1.0  0.21801  0.87754  0.40371  1.0000
  C   C226      1.0  0.24798  0.86521  0.40016  1.0000
  H   H138      1.0  0.27067  0.86495  0.44816  1.0000
  C   C227      1.0  0.08058  0.90919  0.34864  1.0000
  C   C228      1.0  0.08862  0.89805  0.41837  1.0000
  C   C229      1.0  0.12394  0.88813  0.41331  1.0000
  H   H139      1.0  0.12874  0.87997  0.46348  1.0000
  N   N51       1.0  0.22167  0.88889  0.46863  1.0000
  H   H140      1.0  0.24432  0.88869  0.51170  1.0000
  H   H141      1.0  0.20308  0.89795  0.47180  1.0000
  N   N52       1.0  0.06142  0.89712  0.49286  1.0000
  O   O52       1.0  0.07957  0.90055  0.56499  1.0000
  O   O53       1.0  0.04578  0.88348  0.50038  1.0000
  C   C230      1.0  0.74570  0.65527  0.34412  1.0000
  C   C231      1.0  0.71334  0.65514  0.40875  1.0000
  C   C232      1.0  0.68286  0.64302  0.40585  1.0000
  C   C233      1.0  0.68377  0.63067  0.34126  1.0000
  C   C234      1.0  0.65036  0.61940  0.34053  1.0000
  C   C235      1.0  0.64302  0.60827  0.41121  1.0000
  C   C236      1.0  0.60752  0.59834  0.40709  1.0000
  H   H142      1.0  0.60172  0.59066  0.45911  1.0000
  H   H143      1.0  0.65945  0.64332  0.45219  1.0000
  N   N53       1.0  0.66898  0.60672  0.48268  1.0000
  H   H144      1.0  0.69444  0.61280  0.48728  1.0000
  H   H145      1.0  0.66369  0.59898  0.53003  1.0000
  N   N54       1.0  0.71237  0.66688  0.47724  1.0000
  O   O54       1.0  0.67955  0.67489  0.47491  1.0000
  O   O55       1.0  0.71594  0.66077  0.55395  1.0000
  C   C237      1.0  0.26241  0.35300  0.34648  1.0000
  C   C238      1.0  0.29480  0.35309  0.41107  1.0000
  C   C239      1.0  0.32523  0.36523  0.40842  1.0000
  C   C240      1.0  0.32425  0.37763  0.34415  1.0000
  C   C241      1.0  0.35770  0.38889  0.34338  1.0000
  C   C242      1.0  0.36536  0.39993  0.41434  1.0000
  C   C243      1.0  0.40087  0.40985  0.40996  1.0000
  H   H146      1.0  0.40687  0.41748  0.46210  1.0000
  H   H147      1.0  0.34868  0.36490  0.45466  1.0000
  N   N55       1.0  0.33966  0.40141  0.48630  1.0000
  H   H148      1.0  0.31419  0.39535  0.49110  1.0000
  H   H149      1.0  0.34515  0.40910  0.53385  1.0000
  N   N56       1.0  0.29583  0.34130  0.47928  1.0000
  O   O56       1.0  0.32868  0.33332  0.47674  1.0000
  O   O57       1.0  0.29225  0.34736  0.55614  1.0000
  C   C244      1.0  0.29028  0.63085  0.40969  1.0000
  C   C245      1.0  0.26026  0.64317  0.40577  1.0000
  H   H150      1.0  0.23760  0.64350  0.45382  1.0000
  C   C246      1.0  0.42749  0.59904  0.35262  1.0000
  C   C247      1.0  0.42004  0.61031  0.42196  1.0000
  C   C248      1.0  0.38466  0.62022  0.41776  1.0000
  H   H151      1.0  0.38029  0.62848  0.46759  1.0000
  N   N57       1.0  0.28675  0.61960  0.47516  1.0000
  H   H152      1.0  0.26420  0.61986  0.51843  1.0000
  H   H153      1.0  0.30544  0.61057  0.47874  1.0000
  N   N58       1.0  0.44791  0.61138  0.49520  1.0000
  O   O58       1.0  0.43041  0.60810  0.56829  1.0000
  O   O59       1.0  0.46360  0.62504  0.50118  1.0000
  C   C249      1.0  0.71818  0.37757  0.40559  1.0000
  C   C250      1.0  0.74813  0.36522  0.40209  1.0000
  H   H154      1.0  0.77090  0.36498  0.44992  1.0000
  C   C251      1.0  0.58066  0.40920  0.34956  1.0000
  C   C252      1.0  0.58867  0.39814  0.41966  1.0000
  C   C253      1.0  0.62405  0.38823  0.41507  1.0000
  H   H155      1.0  0.62881  0.38012  0.46549  1.0000
  N   N59       1.0  0.72195  0.38895  0.47028  1.0000
  H   H156      1.0  0.74464  0.38877  0.51324  1.0000
  H   H157      1.0  0.70336  0.39802  0.47344  1.0000
  N   N60       1.0  0.56138  0.39726  0.49401  1.0000
  O   O60       1.0  0.57942  0.40077  0.56614  1.0000
  O   O61       1.0  0.54578  0.38362  0.50182  1.0000
  C   C254      1.0  0.29076  0.23997  0.40230  1.0000
  C   C255      1.0  0.29911  0.22341  0.40119  1.0000
  H   H158      1.0  0.31937  0.21889  0.44759  1.0000
  C   C256      1.0  0.22773  0.29546  0.34038  1.0000
  C   C257      1.0  0.21485  0.28494  0.40961  1.0000
  C   C258      1.0  0.22674  0.26874  0.40600  1.0000
  H   H159      1.0  0.21725  0.26127  0.45643  1.0000
  N   N61       1.0  0.31085  0.24925  0.46341  1.0000
  H   H160      1.0  0.33051  0.24471  0.50580  1.0000
  H   H161      1.0  0.30747  0.26074  0.46493  1.0000
  N   N62       1.0  0.19134  0.29084  0.48275  1.0000
  O   O62       1.0  0.21029  0.28926  0.55594  1.0000
  O   O63       1.0  0.15699  0.28393  0.48872  1.0000
  C   C259      1.0  0.71753  0.76822  0.40252  1.0000
  C   C260      1.0  0.70916  0.78477  0.40181  1.0000
  H   H162      1.0  0.68885  0.78925  0.44823  1.0000
  C   C261      1.0  0.78061  0.71278  0.33937  1.0000
  C   C262      1.0  0.79344  0.72324  0.40893  1.0000
  C   C263      1.0  0.78157  0.73945  0.40570  1.0000
  H   H163      1.0  0.79103  0.74688  0.45636  1.0000
  N   N63       1.0  0.69739  0.75888  0.46327  1.0000
  H   H164      1.0  0.67768  0.76338  0.50569  1.0000
  H   H165      1.0  0.70079  0.74738  0.46450  1.0000
  N   N64       1.0  0.81688  0.71728  0.48202  1.0000
  O   O64       1.0  0.79787  0.71881  0.55517  1.0000
  O   O65       1.0  0.85123  0.72418  0.48832  1.0000
  C   C264      1.0  0.72667  0.21293  0.33863  1.0000
  C   C265      1.0  0.75463  0.21939  0.40250  1.0000
  C   C266      1.0  0.76405  0.23587  0.39992  1.0000
  C   C267      1.0  0.74562  0.24622  0.33663  1.0000
  C   C268      1.0  0.75646  0.26271  0.33912  1.0000
  C   C269      1.0  0.74309  0.27320  0.40850  1.0000
  C   C270      1.0  0.75569  0.28937  0.40532  1.0000
  H   H166      1.0  0.74664  0.29690  0.45584  1.0000
  H   H167      1.0  0.78418  0.24039  0.44658  1.0000
  N   N65       1.0  0.71826  0.26840  0.47724  1.0000
  H   H168      1.0  0.70775  0.25758  0.48122  1.0000
  H   H169      1.0  0.70920  0.27581  0.52358  1.0000
  N   N66       1.0  0.77149  0.20949  0.47034  1.0000
  O   O66       1.0  0.81028  0.20916  0.46663  1.0000
  O   O67       1.0  0.76079  0.21399  0.54749  1.0000
  C   C271      1.0  0.28142  0.79533  0.33750  1.0000
  C   C272      1.0  0.25340  0.78892  0.40144  1.0000
  C   C273      1.0  0.24396  0.77245  0.39930  1.0000
  C   C274      1.0  0.26244  0.76203  0.33641  1.0000
  C   C275      1.0  0.25161  0.74555  0.33936  1.0000
  C   C276      1.0  0.26493  0.73512  0.40910  1.0000
  C   C277      1.0  0.25234  0.71895  0.40635  1.0000
  H   H170      1.0  0.26136  0.71147  0.45711  1.0000
  H   H171      1.0  0.22380  0.76797  0.44603  1.0000
  N   N67       1.0  0.28971  0.73999  0.47778  1.0000
  H   H172      1.0  0.30020  0.75081  0.48148  1.0000
  H   H173      1.0  0.29873  0.73263  0.52437  1.0000
  N   N68       1.0  0.23648  0.79889  0.46892  1.0000
  O   O68       1.0  0.19770  0.79922  0.46503  1.0000
  O   O69       1.0  0.24710  0.79447  0.54625  1.0000
  C   C278      1.0  0.00150  0.99561  0.34388  1.0000
  C   C279      1.0  0.00140  0.01279  0.34648  1.0000
  C   C280      1.0  0.98185  0.02177  0.41587  1.0000
  C   C281      1.0  0.98324  0.03870  0.41265  1.0000
  H   H174      1.0  0.96927  0.04504  0.46304  1.0000
  N   N69       1.0  0.96110  0.01471  0.48481  1.0000
  H   H175      1.0  0.95813  0.00322  0.48903  1.0000
  H   H176      1.0  0.94758  0.02100  0.53127  1.0000
  N   N70       1.0  0.05088  0.96242  0.47652  1.0000
  O   O70       1.0  0.08857  0.96596  0.47215  1.0000
  C   C282      1.0  0.50464  0.46116  0.34609  1.0000
  C   C283      1.0  0.52752  0.47030  0.40942  1.0000
  C   C284      1.0  0.52586  0.48721  0.40702  1.0000
  C   C285      1.0  0.50148  0.49561  0.34388  1.0000
  C   C286      1.0  0.50136  0.51280  0.34648  1.0000
  C   C287      1.0  0.48179  0.52177  0.41584  1.0000
  C   C288      1.0  0.48320  0.53870  0.41265  1.0000
  H   H177      1.0  0.46922  0.54504  0.46303  1.0000
  H   H178      1.0  0.54256  0.49350  0.45351  1.0000
  N   N71       1.0  0.46100  0.51472  0.48473  1.0000
  H   H179      1.0  0.45800  0.50323  0.48890  1.0000
  H   H180      1.0  0.44747  0.52101  0.53116  1.0000
  N   N72       1.0  0.55058  0.46243  0.47707  1.0000
  O   O71       1.0  0.58827  0.46597  0.47316  1.0000
  O   O72       1.0  0.53734  0.46569  0.55432  1.0000
