data_image0
_chemical_formula_structural       C2HCNHC5HONCN2C2NCHNHCNHC6HO3CNHC6OCNC2NCNCNCNHC4HCHC4HC4HOC2HOH2C4HCNCHNCN2CNCNHNC6HC6HO2C4HC6HO2CNCHNHCNCHNC4HC6HO2C4HC6HO2C4HC6HO2C4HC6HO2C4HC6HO2C3HC2O2CNCHNHCNCHNHCNCHNH2CNCHNHCNCHNHC4HC6HO2C4HC6HO2C4HC6HO2C4HCOC4HC6HO2C4HC6HO2C2NCNCNCNCNCNCNCNCNCNCNCNCNCNCNCNCNCNCNCNCNCNCNCNCNCNCNCNCNCNCNCNCNCNCNCNCNCNCNCNCHNHC4HC6HO2C4HC6HO2CNCHNHCNCHNHCNCHNHCNCHNHCNCHNHC5HC6HO2C4HC6HO2C4HC6HO2C4HC6HO2C4HC6HO2CNCHNHCNCHNHCNCHNHCNHCNCHNHCNCHNH
_chemical_formula_sum              "C336 H96 N96 O48"
_cell_length_a       62.5896
_cell_length_b       62.5896
_cell_length_c       14.9093
_cell_angle_alpha    90
_cell_angle_beta     90
_cell_angle_gamma    120

_space_group_name_H-M_alt    "P 1"
_space_group_IT_number       1

loop_
  _space_group_symop_operation_xyz
  'x, y, z'

loop_
  _atom_site_type_symbol
  _atom_site_label
  _atom_site_symmetry_multiplicity
  _atom_site_fract_x
  _atom_site_fract_y
  _atom_site_fract_z
  _atom_site_occupancy
  C   C1        1.0  0.05029  0.00389  0.32278  1.0000
  C   C2        1.0  0.07308  0.02611  0.31153  1.0000
  H   H1        1.0  0.07296  0.04226  0.30266  1.0000
  C   C3        1.0  0.07147  0.26072  0.32320  1.0000
  N   N1        1.0  0.08998  0.28480  0.32592  1.0000
  H   H2        1.0  0.07497  0.24793  0.29478  1.0000
  C   C4        1.0  0.01824  0.55000  0.29501  1.0000
  C   C5        1.0  0.06996  0.57464  0.30971  1.0000
  C   C6        1.0  0.05709  0.55129  0.26785  1.0000
  C   C7        1.0  0.03124  0.53864  0.25991  1.0000
  C   C8        1.0  0.01829  0.51496  0.22065  1.0000
  H   H3        1.0  0.06663  0.54316  0.24368  1.0000
  O   O1        1.0  0.03027  0.50371  0.18695  1.0000
  N   N2        1.0  0.00496  0.98182  0.32284  1.0000
  C   C9        1.0  0.02699  0.00344  0.32283  1.0000
  N   N3        1.0  0.02579  0.02466  0.32283  1.0000
  N   N4        1.0  0.02563  0.20762  0.33901  1.0000
  C   C10       1.0  0.02625  0.22975  0.34226  1.0000
  C   C11       1.0  0.02533  0.07123  0.33395  1.0000
  N   N5        1.0  0.02442  0.09255  0.33436  1.0000
  C   C12       1.0  0.02520  0.16057  0.33865  1.0000
  H   H4        1.0  0.04213  0.07253  0.34282  1.0000
  N   N6        1.0  0.02435  0.13837  0.33692  1.0000
  H   H5        1.0  0.04197  0.17601  0.34844  1.0000
  C   C13       1.0  0.05198  0.98227  0.33391  1.0000
  N   N7        1.0  0.07421  0.98318  0.33433  1.0000
  H   H6        1.0  0.03649  0.96547  0.34270  1.0000
  C   C14       1.0  0.08729  0.30372  0.35862  1.0000
  C   C15       1.0  0.04745  0.25387  0.35336  1.0000
  C   C16       1.0  0.04444  0.27310  0.39021  1.0000
  C   C17       1.0  0.06378  0.29786  0.39290  1.0000
  C   C18       1.0  0.05986  0.31673  0.42673  1.0000
  C   C19       1.0  0.07899  0.34142  0.42522  1.0000
  H   H7        1.0  0.02754  0.26908  0.41451  1.0000
  O   O2        1.0  0.03761  0.31169  0.45941  1.0000
  O   O3        1.0  0.07427  0.35896  0.45680  1.0000
  O   O4        1.0  0.08507  0.48826  0.43912  1.0000
  C   C20       1.0  0.05611  0.58541  0.34004  1.0000
  N   N8        1.0  0.03114  0.57277  0.33297  1.0000
  H   H8        1.0  0.06442  0.60215  0.37160  1.0000
  C   C21       1.0  0.09631  0.00428  0.32376  1.0000
  C   C22       1.0  0.09608  0.02671  0.31144  1.0000
  C   C23       1.0  0.11909  0.00430  0.32478  1.0000
  C   C24       1.0  0.14177  0.02674  0.31315  1.0000
  C   C25       1.0  0.14128  0.04890  0.30025  1.0000
  C   C26       1.0  0.11875  0.04888  0.29951  1.0000
  O   O5        1.0  0.11934  0.07061  0.28698  1.0000
  C   C27       1.0  0.14841  0.35953  0.32038  1.0000
  N   N9        1.0  0.12956  0.33567  0.32445  1.0000
  C   C28       1.0  0.15122  0.64625  0.33199  1.0000
  C   C29       1.0  0.12998  0.57945  0.34240  1.0000
  N   N10       1.0  0.14524  0.60444  0.34139  1.0000
  C   C30       1.0  0.13601  0.62017  0.33439  1.0000
  N   N11       1.0  0.11119  0.61042  0.32547  1.0000
  C   C31       1.0  0.09565  0.58574  0.32324  1.0000
  N   N12       1.0  0.10558  0.57105  0.33214  1.0000
  C   C32       1.0  0.14145  0.98241  0.33861  1.0000
  N   N13       1.0  0.12011  0.98326  0.33689  1.0000
  H   H9        1.0  0.14014  0.96564  0.34831  1.0000
  C   C33       1.0  0.14506  0.37922  0.34942  1.0000
  C   C34       1.0  0.10669  0.32876  0.35752  1.0000
  C   C35       1.0  0.10236  0.34764  0.39013  1.0000
  C   C36       1.0  0.12158  0.37248  0.38532  1.0000
  H   H10       1.0  0.11830  0.38598  0.40839  1.0000
  C   C37       1.0  0.14228  0.66197  0.36001  1.0000
  H   H11       1.0  0.12499  0.65500  0.38646  1.0000
  C   C38       1.0  0.13720  0.56124  0.35112  1.0000
  C   C39       1.0  0.14891  0.52294  0.35212  1.0000
  C   C40       1.0  0.12531  0.51781  0.38230  1.0000
  C   C41       1.0  0.11996  0.53718  0.38170  1.0000
  H   H12       1.0  0.10289  0.53348  0.40288  1.0000
  C   C42       1.0  0.14295  0.46051  0.37008  1.0000
  C   C43       1.0  0.13671  0.47931  0.37573  1.0000
  C   C44       1.0  0.11341  0.47457  0.40677  1.0000
  C   C45       1.0  0.10775  0.49367  0.41008  1.0000
  H   H13       1.0  0.13034  0.44295  0.38950  1.0000
  O   O6        1.0  0.09602  0.45165  0.43320  1.0000
  C   C46       1.0  0.16479  0.00402  0.32780  1.0000
  C   C47       1.0  0.16418  0.02619  0.31490  1.0000
  H   H14       1.0  0.18045  0.04236  0.30653  1.0000
  O   O7        1.0  0.16246  0.07064  0.28842  1.0000
  H   H15       1.0  0.16477  0.36294  0.29293  1.0000
  H   H16       1.0  0.17903  0.93263  0.29500  1.0000
  C   C48       1.0  0.19369  0.72422  0.31354  1.0000
  C   C49       1.0  0.17974  0.69819  0.31894  1.0000
  C   C50       1.0  0.17541  0.65756  0.29681  1.0000
  C   C51       1.0  0.18983  0.68351  0.28876  1.0000
  H   H17       1.0  0.18226  0.64673  0.27415  1.0000
  C   C52       1.0  0.16064  0.56529  0.32493  1.0000
  N   N14       1.0  0.16546  0.54635  0.32540  1.0000
  C   C53       1.0  0.18323  0.49031  0.31450  1.0000
  H   H18       1.0  0.17383  0.58208  0.30116  1.0000
  N   N15       1.0  0.17686  0.50804  0.31963  1.0000
  C   C54       1.0  0.18769  0.00366  0.32980  1.0000
  N   N16       1.0  0.18809  0.98199  0.33899  1.0000
  N   N17       1.0  0.18817  0.41263  0.32908  1.0000
  C   C55       1.0  0.16362  0.40473  0.34105  1.0000
  N   N18       1.0  0.15678  0.42233  0.34417  1.0000
  C   C56       1.0  0.17302  0.44686  0.33550  1.0000
  N   N19       1.0  0.18472  0.73871  0.34432  1.0000
  H   H19       1.0  0.18996  0.77325  0.37088  1.0000
  N   N20       1.0  0.15654  0.68682  0.35328  1.0000
  C   C57       1.0  0.15451  0.50367  0.34902  1.0000
  C   C58       1.0  0.16641  0.46559  0.33948  1.0000
  C   C59       1.0  0.00372  0.04792  0.32273  1.0000
  C   C60       1.0  0.00333  0.09355  0.32368  1.0000
  C   C61       1.0  0.98091  0.07089  0.31127  1.0000
  C   C62       1.0  0.98150  0.04849  0.31137  1.0000
  H   H20       1.0  0.96536  0.03223  0.30242  1.0000
  C   C63       1.0  0.00331  0.11630  0.32472  1.0000
  C   C64       1.0  0.00359  0.16229  0.32774  1.0000
  C   C65       1.0  0.98143  0.13952  0.31473  1.0000
  C   C66       1.0  0.98087  0.11655  0.31297  1.0000
  C   C67       1.0  0.95872  0.09392  0.29996  1.0000
  C   C68       1.0  0.95874  0.07140  0.29922  1.0000
  H   H21       1.0  0.96526  0.13962  0.30629  1.0000
  O   O8        1.0  0.93698  0.09335  0.28803  1.0000
  O   O9        1.0  0.93701  0.05026  0.28659  1.0000
  C   C69       1.0  0.95969  0.95732  0.32276  1.0000
  C   C70       1.0  0.91405  0.91129  0.32374  1.0000
  C   C71       1.0  0.93671  0.91152  0.31152  1.0000
  C   C72       1.0  0.95912  0.93452  0.31161  1.0000
  H   H22       1.0  0.97538  0.93464  0.30281  1.0000
  C   C73       1.0  0.89130  0.88852  0.32478  1.0000
  C   C74       1.0  0.84532  0.84282  0.32780  1.0000
  C   C75       1.0  0.86808  0.84342  0.31499  1.0000
  C   C76       1.0  0.89106  0.86583  0.31323  1.0000
  C   C77       1.0  0.91370  0.86631  0.30044  1.0000
  C   C78       1.0  0.93621  0.88884  0.29969  1.0000
  H   H23       1.0  0.86799  0.82716  0.30670  1.0000
  O   O10       1.0  0.91426  0.84514  0.28871  1.0000
  O   O11       1.0  0.95736  0.88826  0.28726  1.0000
  C   C79       1.0  0.64807  0.79039  0.32028  1.0000
  N   N21       1.0  0.67193  0.79540  0.32440  1.0000
  C   C80       1.0  0.74689  0.81228  0.32325  1.0000
  H   H24       1.0  0.64466  0.80335  0.29293  1.0000
  N   N22       1.0  0.72280  0.80669  0.32592  1.0000
  H   H25       1.0  0.75967  0.82856  0.29473  1.0000
  C   C81       1.0  0.21719  0.85919  0.32054  1.0000
  N   N23       1.0  0.21219  0.87804  0.32458  1.0000
  C   C82       1.0  0.19533  0.93614  0.32330  1.0000
  H   H26       1.0  0.20423  0.84282  0.29319  1.0000
  N   N24       1.0  0.20091  0.91763  0.32605  1.0000
  C   C83       1.0  0.38165  0.14399  0.32991  1.0000
  C   C84       1.0  0.33124  0.10568  0.31729  1.0000
  C   C85       1.0  0.35036  0.10127  0.28808  1.0000
  C   C86       1.0  0.37516  0.12047  0.29499  1.0000
  H   H27       1.0  0.38880  0.11713  0.27426  1.0000
  C   C87       1.0  0.30622  0.08631  0.31389  1.0000
  C   C88       1.0  0.25629  0.04657  0.31450  1.0000
  C   C89       1.0  0.27580  0.04343  0.28144  1.0000
  C   C90       1.0  0.30060  0.06273  0.28098  1.0000
  C   C91       1.0  0.31972  0.05874  0.25059  1.0000
  C   C92       1.0  0.34440  0.07785  0.25418  1.0000
  H   H28       1.0  0.27194  0.02648  0.25826  1.0000
  O   O12       1.0  0.31491  0.03645  0.21915  1.0000
  O   O13       1.0  0.36216  0.07307  0.22579  1.0000
  C   C93       1.0  0.76844  0.62597  0.32996  1.0000
  C   C94       1.0  0.78051  0.67637  0.31733  1.0000
  C   C95       1.0  0.75699  0.65725  0.28814  1.0000
  C   C96       1.0  0.75140  0.63245  0.29504  1.0000
  H   H29       1.0  0.73442  0.61881  0.27436  1.0000
  C   C97       1.0  0.78617  0.70140  0.31395  1.0000
  C   C98       1.0  0.79633  0.75131  0.31464  1.0000
  C   C99       1.0  0.77369  0.73180  0.28159  1.0000
  C   C100      1.0  0.76820  0.70701  0.28109  1.0000
  C   C101      1.0  0.74509  0.68788  0.25071  1.0000
  C   C102      1.0  0.73953  0.66321  0.25427  1.0000
  H   H30       1.0  0.76060  0.73566  0.25841  1.0000
  O   O14       1.0  0.72760  0.69268  0.21933  1.0000
  O   O15       1.0  0.71698  0.64544  0.22590  1.0000
  C   C103      1.0  0.86362  0.23917  0.32991  1.0000
  C   C104      1.0  0.90194  0.22710  0.31731  1.0000
  C   C105      1.0  0.90635  0.25062  0.28817  1.0000
  C   C106      1.0  0.88715  0.25622  0.29507  1.0000
  H   H31       1.0  0.89049  0.27321  0.27440  1.0000
  C   C107      1.0  0.92131  0.22144  0.31393  1.0000
  C   C108      1.0  0.96106  0.21127  0.31459  1.0000
  C   C109      1.0  0.96420  0.23391  0.28158  1.0000
  C   C110      1.0  0.94490  0.23941  0.28111  1.0000
  C   C111      1.0  0.94889  0.26252  0.25078  1.0000
  C   C112      1.0  0.92978  0.26809  0.25435  1.0000
  H   H32       1.0  0.98116  0.24702  0.25845  1.0000
  O   O16       1.0  0.97119  0.28002  0.21943  1.0000
  O   O17       1.0  0.93456  0.29064  0.22603  1.0000
  C   C113      1.0  0.23120  0.44736  0.31055  1.0000
  C   C114      1.0  0.28338  0.47100  0.31353  1.0000
  C   C115      1.0  0.27194  0.48373  0.27709  1.0000
  C   C116      1.0  0.24595  0.47151  0.27554  1.0000
  H   H33       1.0  0.23764  0.48074  0.25021  1.0000
  C   C117      1.0  0.30941  0.48307  0.31895  1.0000
  C   C118      1.0  0.36135  0.50649  0.33204  1.0000
  C   C119      1.0  0.35004  0.51938  0.29702  1.0000
  C   C120      1.0  0.32409  0.50786  0.28896  1.0000
  C   C121      1.0  0.31245  0.52020  0.25178  1.0000
  C   C122      1.0  0.28657  0.50820  0.24565  1.0000
  H   H34       1.0  0.36087  0.53707  0.27450  1.0000
  O   O18       1.0  0.32582  0.54371  0.22162  1.0000
  O   O19       1.0  0.27613  0.52078  0.21050  1.0000
  C   C123      1.0  0.56022  0.78534  0.31067  1.0000
  C   C124      1.0  0.53659  0.81389  0.31356  1.0000
  C   C125      1.0  0.52385  0.78971  0.27721  1.0000
  C   C126      1.0  0.53606  0.77593  0.27569  1.0000
  H   H35       1.0  0.52684  0.75839  0.25035  1.0000
  C   C127      1.0  0.52452  0.82785  0.31896  1.0000
  C   C128      1.0  0.50110  0.85637  0.33204  1.0000
  C   C129      1.0  0.48820  0.83217  0.29710  1.0000
  C   C130      1.0  0.49972  0.81773  0.28903  1.0000
  C   C131      1.0  0.48738  0.79375  0.25192  1.0000
  C   C132      1.0  0.49937  0.77986  0.24581  1.0000
  H   H36       1.0  0.47051  0.82530  0.27458  1.0000
  O   O20       1.0  0.46386  0.78360  0.22183  1.0000
  O   O21       1.0  0.48679  0.75683  0.21075  1.0000
  C   C133      1.0  0.22223  0.77640  0.31070  1.0000
  C   C134      1.0  0.21784  0.73567  0.27694  1.0000
  C   C135      1.0  0.23162  0.76166  0.27545  1.0000
  H   H37       1.0  0.24915  0.76998  0.25003  1.0000
  C   C136      1.0  0.21379  0.69516  0.25139  1.0000
  C   C137      1.0  0.22767  0.72104  0.24530  1.0000
  O   O22       1.0  0.22391  0.68180  0.22104  1.0000
  O   O23       1.0  0.25067  0.73149  0.20997  1.0000
  C   C138      1.0  0.43706  0.24227  0.34287  1.0000
  N   N25       1.0  0.44873  0.26735  0.34194  1.0000
  C   C139      1.0  0.48181  0.34380  0.32345  1.0000
  H   H38       1.0  0.41960  0.23261  0.31740  1.0000
  N   N26       1.0  0.47160  0.31904  0.33178  1.0000
  H   H39       1.0  0.47104  0.35024  0.29703  1.0000
  C   C140      1.0  0.81131  0.57056  0.34313  1.0000
  N   N27       1.0  0.82470  0.55888  0.34206  1.0000
  C   C141      1.0  0.86807  0.52580  0.32346  1.0000
  H   H40       1.0  0.81909  0.58801  0.31748  1.0000
  N   N28       1.0  0.85353  0.53601  0.33181  1.0000
  H   H41       1.0  0.88528  0.53657  0.29707  1.0000
  C   C142      1.0  0.76534  0.19631  0.34296  1.0000
  N   N29       1.0  0.74027  0.18290  0.34202  1.0000
  C   C143      1.0  0.66382  0.13952  0.32350  1.0000
  H   H42       1.0  0.77501  0.18850  0.31759  1.0000
  N   N30       1.0  0.68857  0.15407  0.33184  1.0000
  H   H43       1.0  0.65737  0.12230  0.29720  1.0000
  H   H44       1.0  0.20049  0.49542  0.29130  1.0000
  C   C144      1.0  0.44232  0.59686  0.32480  1.0000
  N   N31       1.0  0.46126  0.62062  0.32534  1.0000
  C   C145      1.0  0.51729  0.69443  0.31443  1.0000
  H   H45       1.0  0.42552  0.59327  0.30121  1.0000
  N   N32       1.0  0.49956  0.67034  0.31956  1.0000
  H   H46       1.0  0.51219  0.70658  0.29124  1.0000
  C   C146      1.0  0.41073  0.84696  0.32497  1.0000
  N   N33       1.0  0.38697  0.84214  0.32541  1.0000
  C   C147      1.0  0.31316  0.82437  0.31449  1.0000
  H   H47       1.0  0.41433  0.83378  0.30116  1.0000
  N   N34       1.0  0.33725  0.83074  0.31961  1.0000
  H   H48       1.0  0.30101  0.80712  0.29127  1.0000
  C   C148      1.0  0.56271  0.13486  0.32277  1.0000
  C   C149      1.0  0.52462  0.14696  0.32818  1.0000
  C   C150      1.0  0.51948  0.12393  0.29174  1.0000
  C   C151      1.0  0.53873  0.11844  0.28909  1.0000
  H   H49       1.0  0.53493  0.10183  0.26258  1.0000
  C   C152      1.0  0.50550  0.15275  0.33320  1.0000
  C   C153      1.0  0.46773  0.16503  0.34499  1.0000
  C   C154      1.0  0.46264  0.14200  0.30974  1.0000
  C   C155      1.0  0.48130  0.13562  0.30268  1.0000
  C   C156      1.0  0.47653  0.11282  0.26612  1.0000
  C   C157      1.0  0.49550  0.10704  0.26046  1.0000
  H   H50       1.0  0.44524  0.12990  0.28726  1.0000
  O   O24       1.0  0.45376  0.09610  0.23601  1.0000
  O   O25       1.0  0.49010  0.08490  0.22557  1.0000
  C   C158      1.0  0.57826  0.44489  0.32269  1.0000
  C   C159      1.0  0.62844  0.48298  0.32811  1.0000
  C   C160      1.0  0.61056  0.48811  0.29156  1.0000
  C   C161      1.0  0.58582  0.46886  0.28889  1.0000
  H   H51       1.0  0.57302  0.47265  0.26232  1.0000
  C   C162      1.0  0.65335  0.50210  0.33316  1.0000
  C   C163      1.0  0.70340  0.53989  0.34506  1.0000
  C   C164      1.0  0.68546  0.54496  0.30966  1.0000
  C   C165      1.0  0.66042  0.52629  0.30257  1.0000
  C   C166      1.0  0.64240  0.53106  0.26588  1.0000
  C   C167      1.0  0.61766  0.51209  0.26019  1.0000
  H   H52       1.0  0.69077  0.56236  0.28715  1.0000
  O   O26       1.0  0.64845  0.55382  0.23569  1.0000
  O   O27       1.0  0.60092  0.51747  0.22519  1.0000
  C   C168      1.0  0.87273  0.42936  0.32276  1.0000
  C   C169      1.0  0.86064  0.37918  0.32820  1.0000
  C   C170      1.0  0.88366  0.39707  0.29170  1.0000
  C   C171      1.0  0.88915  0.42181  0.28904  1.0000
  H   H53       1.0  0.90575  0.43461  0.26249  1.0000
  C   C172      1.0  0.85485  0.35427  0.33323  1.0000
  C   C173      1.0  0.84258  0.30422  0.34507  1.0000
  C   C174      1.0  0.86561  0.32216  0.30976  1.0000
  C   C175      1.0  0.87199  0.34720  0.30268  1.0000
  C   C176      1.0  0.89477  0.36523  0.26606  1.0000
  C   C177      1.0  0.90055  0.38997  0.26038  1.0000
  H   H54       1.0  0.87770  0.31686  0.28724  1.0000
  O   O28       1.0  0.91149  0.35918  0.23591  1.0000
  O   O29       1.0  0.92268  0.40672  0.22544  1.0000
  C   C178      1.0  0.94034  0.51056  0.30099  1.0000
  C   C179      1.0  0.99223  0.53716  0.29308  1.0000
  C   C180      1.0  0.97933  0.51310  0.25551  1.0000
  C   C181      1.0  0.95342  0.50022  0.25946  1.0000
  H   H55       1.0  0.94400  0.48275  0.23358  1.0000
  C   C182      1.0  0.99240  0.50224  0.21827  1.0000
  O   O30       1.0  0.98051  0.47925  0.18258  1.0000
  C   C183      1.0  0.49706  0.43131  0.30094  1.0000
  C   C184      1.0  0.47046  0.45659  0.29309  1.0000
  C   C185      1.0  0.49453  0.46777  0.25560  1.0000
  C   C186      1.0  0.50741  0.45474  0.25954  1.0000
  H   H56       1.0  0.52488  0.46279  0.23363  1.0000
  C   C187      1.0  0.45762  0.46977  0.29502  1.0000
  C   C188      1.0  0.43297  0.49684  0.30973  1.0000
  C   C189      1.0  0.45633  0.50733  0.26789  1.0000
  C   C190      1.0  0.46898  0.49413  0.25998  1.0000
  C   C191      1.0  0.49267  0.50488  0.22079  1.0000
  C   C192      1.0  0.50539  0.49172  0.21843  1.0000
  H   H57       1.0  0.46446  0.52500  0.24379  1.0000
  O   O31       1.0  0.50392  0.52810  0.18713  1.0000
  O   O32       1.0  0.52840  0.50283  0.18280  1.0000
  C   C193      1.0  0.57630  0.06726  0.30092  1.0000
  C   C194      1.0  0.55101  0.01537  0.29305  1.0000
  C   C195      1.0  0.53984  0.02826  0.25552  1.0000
  C   C196      1.0  0.55288  0.05418  0.25943  1.0000
  H   H58       1.0  0.54483  0.06360  0.23357  1.0000
  C   C197      1.0  0.53783  0.98935  0.29501  1.0000
  C   C198      1.0  0.51075  0.93764  0.30980  1.0000
  C   C199      1.0  0.50026  0.95051  0.26795  1.0000
  C   C200      1.0  0.51347  0.97636  0.25997  1.0000
  C   C201      1.0  0.50273  0.98931  0.22074  1.0000
  C   C202      1.0  0.51590  0.01519  0.21833  1.0000
  H   H59       1.0  0.48259  0.94097  0.24382  1.0000
  O   O33       1.0  0.47950  0.97733  0.18709  1.0000
  O   O34       1.0  0.50479  0.02708  0.18267  1.0000
  C   C203      1.0  0.98253  0.98061  0.32281  1.0000
  C   C204      1.0  0.00417  0.02507  0.32280  1.0000
  N   N35       1.0  0.98294  0.00265  0.32281  1.0000
  C   C205      1.0  0.98214  0.20806  0.32307  1.0000
  N   N36       1.0  0.98249  0.18643  0.32259  1.0000
  C   C206      1.0  0.00395  0.18555  0.32977  1.0000
  N   N37       1.0  0.00427  0.22878  0.33347  1.0000
  C   C207      1.0  0.79954  0.77560  0.32313  1.0000
  N   N38       1.0  0.82117  0.79758  0.32265  1.0000
  C   C208      1.0  0.82205  0.81992  0.32980  1.0000
  N   N39       1.0  0.79998  0.81952  0.33901  1.0000
  C   C209      1.0  0.77785  0.79802  0.34225  1.0000
  N   N40       1.0  0.77882  0.77701  0.33348  1.0000
  C   C210      1.0  0.23201  0.02548  0.32307  1.0000
  N   N41       1.0  0.21003  0.02513  0.32262  1.0000
  C   C211      1.0  0.20960  0.98137  0.34220  1.0000
  N   N42       1.0  0.23061  0.00336  0.33340  1.0000
  C   C212      1.0  0.20520  0.43711  0.31969  1.0000
  N   N43       1.0  0.19688  0.45334  0.32385  1.0000
  C   C213      1.0  0.57049  0.76961  0.31971  1.0000
  N   N44       1.0  0.59497  0.77706  0.32910  1.0000
  C   C214      1.0  0.60287  0.76041  0.34103  1.0000
  N   N45       1.0  0.58527  0.73597  0.34412  1.0000
  C   C215      1.0  0.56074  0.72767  0.33546  1.0000
  N   N46       1.0  0.55426  0.74505  0.32385  1.0000
  C   C216      1.0  0.23798  0.80239  0.31992  1.0000
  N   N47       1.0  0.23053  0.81943  0.32922  1.0000
  C   C217      1.0  0.24718  0.84398  0.34112  1.0000
  N   N48       1.0  0.27163  0.85082  0.34421  1.0000
  C   C218      1.0  0.27991  0.83457  0.33557  1.0000
  N   N49       1.0  0.26253  0.81071  0.32399  1.0000
  C   C219      1.0  0.43946  0.20405  0.36390  1.0000
  N   N50       1.0  0.41501  0.18706  0.35289  1.0000
  C   C220      1.0  0.40710  0.16253  0.34045  1.0000
  N   N51       1.0  0.42469  0.15569  0.33850  1.0000
  C   C221      1.0  0.44917  0.17185  0.34898  1.0000
  N   N52       1.0  0.45571  0.19571  0.36101  1.0000
  C   C222      1.0  0.77069  0.56817  0.36417  1.0000
  N   N53       1.0  0.77815  0.59261  0.35304  1.0000
  C   C223      1.0  0.76153  0.60052  0.34054  1.0000
  N   N54       1.0  0.73710  0.58293  0.33857  1.0000
  C   C224      1.0  0.72877  0.55845  0.34912  1.0000
  N   N55       1.0  0.74610  0.55191  0.36120  1.0000
  C   C225      1.0  0.80357  0.23693  0.36404  1.0000
  N   N56       1.0  0.82055  0.22947  0.35293  1.0000
  C   C226      1.0  0.84508  0.24609  0.34049  1.0000
  N   N57       1.0  0.85192  0.27052  0.33856  1.0000
  C   C227      1.0  0.83577  0.27884  0.34907  1.0000
  N   N58       1.0  0.81190  0.26152  0.36111  1.0000
  C   C228      1.0  0.42815  0.55205  0.34245  1.0000
  N   N59       1.0  0.40316  0.54231  0.34145  1.0000
  C   C229      1.0  0.38743  0.51735  0.33446  1.0000
  N   N60       1.0  0.39719  0.50229  0.32550  1.0000
  C   C230      1.0  0.42186  0.51143  0.32324  1.0000
  N   N61       1.0  0.43655  0.53605  0.33216  1.0000
  C   C231      1.0  0.45554  0.87761  0.34257  1.0000
  N   N62       1.0  0.46528  0.86236  0.34149  1.0000
  C   C232      1.0  0.49023  0.87158  0.33446  1.0000
  N   N63       1.0  0.50529  0.89641  0.32552  1.0000
  C   C233      1.0  0.49616  0.91194  0.32333  1.0000
  N   N64       1.0  0.47153  0.90201  0.33226  1.0000
  C   C234      1.0  0.58100  0.12754  0.32528  1.0000
  N   N65       1.0  0.60579  0.14242  0.33816  1.0000
  C   C235      1.0  0.62156  0.13313  0.33835  1.0000
  N   N66       1.0  0.61187  0.10839  0.32629  1.0000
  C   C236      1.0  0.58744  0.09304  0.31348  1.0000
  N   N67       1.0  0.57291  0.10325  0.31394  1.0000
  C   C237      1.0  0.55265  0.42661  0.32523  1.0000
  N   N68       1.0  0.54273  0.40182  0.33812  1.0000
  C   C238      1.0  0.51767  0.38605  0.33833  1.0000
  N   N69       1.0  0.50263  0.39574  0.32630  1.0000
  C   C239      1.0  0.51171  0.42017  0.31348  1.0000
  N   N70       1.0  0.53645  0.43470  0.31391  1.0000
  C   C240      1.0  0.88005  0.45497  0.32531  1.0000
  N   N71       1.0  0.86518  0.46488  0.33819  1.0000
  C   C241      1.0  0.87447  0.48994  0.33840  1.0000
  N   N72       1.0  0.89920  0.50499  0.32636  1.0000
  C   C242      1.0  0.91456  0.49592  0.31356  1.0000
  N   N73       1.0  0.90434  0.47117  0.31399  1.0000
  C   C243      1.0  0.93637  0.95562  0.33379  1.0000
  N   N74       1.0  0.91505  0.93340  0.33422  1.0000
  C   C244      1.0  0.84703  0.86616  0.33851  1.0000
  H   H60       1.0  0.93506  0.97112  0.34253  1.0000
  N   N75       1.0  0.86923  0.88750  0.33679  1.0000
  H   H61       1.0  0.83158  0.86748  0.34814  1.0000
  C   C245      1.0  0.62838  0.76736  0.34941  1.0000
  C   C246      1.0  0.67885  0.77946  0.35750  1.0000
  C   C247      1.0  0.65996  0.75624  0.39009  1.0000
  C   C248      1.0  0.63512  0.75062  0.38529  1.0000
  H   H62       1.0  0.62163  0.73385  0.40838  1.0000
  C   C249      1.0  0.70388  0.78509  0.35861  1.0000
  C   C250      1.0  0.75373  0.79509  0.35332  1.0000
  C   C251      1.0  0.73450  0.77286  0.39022  1.0000
  C   C252      1.0  0.70974  0.76743  0.39289  1.0000
  C   C253      1.0  0.69087  0.74465  0.42671  1.0000
  C   C254      1.0  0.66618  0.73908  0.42519  1.0000
  H   H63       1.0  0.73852  0.75997  0.41447  1.0000
  O   O35       1.0  0.69590  0.72743  0.45941  1.0000
  O   O36       1.0  0.64864  0.71683  0.45677  1.0000
  C   C255      1.0  0.24024  0.86254  0.34945  1.0000
  C   C256      1.0  0.22815  0.90092  0.35753  1.0000
  C   C257      1.0  0.25138  0.90526  0.39003  1.0000
  C   C258      1.0  0.25700  0.88604  0.38525  1.0000
  H   H64       1.0  0.27378  0.88932  0.40824  1.0000
  C   C259      1.0  0.22252  0.92032  0.35861  1.0000
  C   C260      1.0  0.21254  0.96018  0.35320  1.0000
  C   C261      1.0  0.23478  0.96319  0.39002  1.0000
  C   C262      1.0  0.24020  0.94385  0.39274  1.0000
  C   C263      1.0  0.26300  0.94777  0.42647  1.0000
  C   C264      1.0  0.26856  0.92864  0.42499  1.0000
  H   H65       1.0  0.24768  0.98010  0.41421  1.0000
  O   O37       1.0  0.28023  0.97004  0.45901  1.0000
  O   O38       1.0  0.29082  0.93337  0.45646  1.0000
  C   C265      1.0  0.36176  0.14739  0.35571  1.0000
  N   N76       1.0  0.33793  0.12858  0.34946  1.0000
  C   C266      1.0  0.26293  0.07065  0.34332  1.0000
  H   H66       1.0  0.36497  0.16379  0.38210  1.0000
  N   N77       1.0  0.28706  0.08910  0.34301  1.0000
  H   H67       1.0  0.24993  0.07424  0.36913  1.0000
  C   C267      1.0  0.79173  0.64586  0.35565  1.0000
  N   N78       1.0  0.79674  0.66969  0.34945  1.0000
  C   C268      1.0  0.81378  0.74467  0.34340  1.0000
  H   H68       1.0  0.80492  0.64265  0.38214  1.0000
  N   N79       1.0  0.80812  0.72055  0.34303  1.0000
  H   H69       1.0  0.83039  0.75769  0.36904  1.0000
  C   C269      1.0  0.86022  0.21589  0.35564  1.0000
  N   N80       1.0  0.87904  0.21087  0.34940  1.0000
  C   C270      1.0  0.93698  0.19382  0.34332  1.0000
  H   H70       1.0  0.84381  0.20268  0.38199  1.0000
  N   N81       1.0  0.91852  0.19948  0.34295  1.0000
  H   H71       1.0  0.93337  0.17721  0.36895  1.0000
  C   C271      1.0  0.24378  0.43545  0.34297  1.0000
  N   N82       1.0  0.26888  0.44752  0.34414  1.0000
  C   C272      1.0  0.34563  0.48180  0.35986  1.0000
  H   H72       1.0  0.23434  0.41821  0.37048  1.0000
  N   N83       1.0  0.32078  0.47123  0.35312  1.0000
  H   H73       1.0  0.35259  0.47147  0.38617  1.0000
  C   C273      1.0  0.57213  0.80983  0.34307  1.0000
  N   N84       1.0  0.56007  0.82287  0.34411  1.0000
  C   C274      1.0  0.52579  0.86534  0.35978  1.0000
  H   H74       1.0  0.58940  0.81767  0.37031  1.0000
  N   N85       1.0  0.53637  0.85107  0.35306  1.0000
  H   H75       1.0  0.53614  0.88265  0.38605  1.0000
  C   C275      1.0  0.19775  0.76381  0.34322  1.0000
  C   C276      1.0  0.44955  0.23004  0.37290  1.0000
  C   C277      1.0  0.47237  0.28215  0.37045  1.0000
  C   C278      1.0  0.48574  0.27110  0.40423  1.0000
  C   C279      1.0  0.47394  0.24511  0.40551  1.0000
  H   H76       1.0  0.48363  0.23708  0.42890  1.0000
  C   C280      1.0  0.48399  0.30813  0.36483  1.0000
  C   C281      1.0  0.50670  0.36001  0.34824  1.0000
  C   C282      1.0  0.52005  0.34912  0.38280  1.0000
  C   C283      1.0  0.50896  0.32322  0.39217  1.0000
  C   C284      1.0  0.52195  0.31198  0.42696  1.0000
  C   C285      1.0  0.51042  0.28612  0.43312  1.0000
  H   H77       1.0  0.53800  0.36019  0.40214  1.0000
  O   O39       1.0  0.54571  0.32572  0.45409  1.0000
  O   O40       1.0  0.52365  0.27606  0.46547  1.0000
  C   C286      1.0  0.78657  0.55806  0.37311  1.0000
  C   C287      1.0  0.81587  0.53524  0.37053  1.0000
  C   C288      1.0  0.79144  0.52187  0.40436  1.0000
  C   C289      1.0  0.77727  0.53368  0.40571  1.0000
  H   H78       1.0  0.75955  0.52399  0.42909  1.0000
  C   C290      1.0  0.83023  0.52362  0.36488  1.0000
  C   C291      1.0  0.85940  0.50092  0.34827  1.0000
  C   C292      1.0  0.83516  0.48756  0.38285  1.0000
  C   C293      1.0  0.82035  0.49865  0.39222  1.0000
  C   C294      1.0  0.79612  0.48566  0.42703  1.0000
  C   C295      1.0  0.78179  0.49720  0.43323  1.0000
  H   H79       1.0  0.82828  0.46961  0.40219  1.0000
  O   O41       1.0  0.78611  0.46190  0.45417  1.0000
  O   O42       1.0  0.75851  0.48396  0.46562  1.0000
  C   C296      1.0  0.77757  0.22105  0.37288  1.0000
  C   C297      1.0  0.72546  0.19174  0.37042  1.0000
  C   C298      1.0  0.73651  0.21618  0.40412  1.0000
  C   C299      1.0  0.76249  0.23036  0.40542  1.0000
  H   H80       1.0  0.77052  0.24808  0.42878  1.0000
  C   C300      1.0  0.69948  0.17738  0.36481  1.0000
  C   C301      1.0  0.64760  0.14820  0.34824  1.0000
  C   C302      1.0  0.65849  0.17245  0.38271  1.0000
  C   C303      1.0  0.68439  0.18726  0.39205  1.0000
  C   C304      1.0  0.69562  0.21150  0.42675  1.0000
  C   C305      1.0  0.72148  0.22583  0.43292  1.0000
  H   H81       1.0  0.64742  0.17934  0.40198  1.0000
  O   O43       1.0  0.68188  0.22152  0.45380  1.0000
  O   O44       1.0  0.73154  0.24913  0.46519  1.0000
  C   C306      1.0  0.44636  0.57748  0.35116  1.0000
  C   C307      1.0  0.48466  0.62748  0.35209  1.0000
  C   C308      1.0  0.48979  0.60902  0.38228  1.0000
  C   C309      1.0  0.47042  0.58429  0.38171  1.0000
  H   H82       1.0  0.47412  0.57092  0.40294  1.0000
  C   C310      1.0  0.50393  0.65235  0.34897  1.0000
  C   C311      1.0  0.54202  0.70233  0.33943  1.0000
  C   C312      1.0  0.54710  0.68395  0.37002  1.0000
  C   C313      1.0  0.52829  0.65891  0.37568  1.0000
  C   C314      1.0  0.53303  0.64035  0.40673  1.0000
  C   C315      1.0  0.51394  0.61560  0.41006  1.0000
  H   H83       1.0  0.56466  0.68890  0.38946  1.0000
  O   O45       1.0  0.55595  0.64588  0.43317  1.0000
  O   O46       1.0  0.51934  0.59833  0.43911  1.0000
  C   C316      1.0  0.43011  0.87039  0.35126  1.0000
  C   C317      1.0  0.38011  0.85868  0.35217  1.0000
  C   C318      1.0  0.39857  0.88228  0.38241  1.0000
  C   C319      1.0  0.42330  0.88763  0.38185  1.0000
  H   H84       1.0  0.43666  0.90470  0.40308  1.0000
  C   C320      1.0  0.35524  0.85308  0.34904  1.0000
  C   C321      1.0  0.30526  0.84119  0.33951  1.0000
  C   C322      1.0  0.32363  0.86464  0.37014  1.0000
  C   C323      1.0  0.34868  0.87088  0.37579  1.0000
  C   C324      1.0  0.36723  0.89418  0.40689  1.0000
  C   C325      1.0  0.39199  0.89984  0.41022  1.0000
  H   H85       1.0  0.31868  0.87725  0.38960  1.0000
  O   O47       1.0  0.36170  0.91157  0.43335  1.0000
  O   O48       1.0  0.40925  0.92251  0.43931  1.0000
  C   C326      1.0  0.56668  0.15770  0.35624  1.0000
  N   N86       1.0  0.54790  0.16276  0.35822  1.0000
  C   C327      1.0  0.49226  0.18123  0.37365  1.0000
  H   H86       1.0  0.58343  0.17039  0.38194  1.0000
  N   N87       1.0  0.50985  0.17468  0.36732  1.0000
  H   H87       1.0  0.49729  0.19814  0.40026  1.0000
  C   C328      1.0  0.59712  0.44092  0.35619  1.0000
  N   N88       1.0  0.62096  0.45971  0.35824  1.0000
  C   C329      1.0  0.69506  0.51536  0.37379  1.0000
  H   H88       1.0  0.59306  0.42419  0.38210  1.0000
  N   N89       1.0  0.67093  0.49777  0.36740  1.0000
  H   H89       1.0  0.70694  0.51033  0.40048  1.0000
  C   C330      1.0  0.84990  0.41050  0.35630  1.0000
  N   N90       1.0  0.84484  0.38666  0.35829  1.0000
  C   C331      1.0  0.82639  0.31255  0.37377  1.0000
  H   H90       1.0  0.83722  0.41455  0.38206  1.0000
  N   N91       1.0  0.83293  0.33669  0.36741  1.0000
  H   H91       1.0  0.80948  0.30067  0.40041  1.0000
  C   C332      1.0  0.95417  0.53493  0.33385  1.0000
  N   N92       1.0  0.97919  0.54704  0.32992  1.0000
  H   H92       1.0  0.94579  0.54326  0.36550  1.0000
  C   C333      1.0  0.47271  0.42079  0.33392  1.0000
  N   N93       1.0  0.46059  0.43369  0.32991  1.0000
  C   C334      1.0  0.42219  0.47221  0.33996  1.0000
  H   H93       1.0  0.46434  0.40403  0.36532  1.0000
  N   N94       1.0  0.43484  0.45988  0.33291  1.0000
  H   H94       1.0  0.40546  0.46378  0.37151  1.0000
  C   C335      1.0  0.58684  0.05343  0.33376  1.0000
  N   N95       1.0  0.57392  0.02840  0.32985  1.0000
  C   C336      1.0  0.53538  0.95149  0.34003  1.0000
  H   H95       1.0  0.60356  0.06181  0.36538  1.0000
  N   N96       1.0  0.54771  0.97646  0.33293  1.0000
  H   H96       1.0  0.54380  0.94317  0.37156  1.0000
