data_image0
_chemical_formula_structural       CNC2H2CO2HC4HC3NHCO2HC4HC3NHCO2HC4HC3NHCO2HCNC2H2CO2HCNC2H2CO2HCNC2H2CO2HCNC2H2CO2HC4HC3NHCO2HC4HC3NHCO2HCNC2H2CO2HC4HC3NHCO2HC4HC3NHCO2HC4HC3NHCO2HCNC2H2CO2HCNC2H2CO2HCNC2H2CO2HCNC2H2CO2HC4HC3NHCO2HC4HC3NHCO2HCNC2H2CO2HCNC2H2CO2HC4HC3NHCO2HC4HC3NHCO2HCNC2H2CO2HCNC2H2CO2HC4HC3NHCO2HC4HC3NHCO2HCNC2H2CO2HCNC2H2CO2HC4HC3NHCO2HC4HC3NHCO2HCNC2H2CO2HCNC2H2CO2HC4HC3NHCO2HC4HC3NHCO2HC6H3C6H3C6H3C6H3C6H3C6H3C6H3C6H3C6H3C6H3C6H3C6H3C6H3C6H3C6H3C6H3C6H3C6H3C6H3C6H3C6H3C6H3C6H3C6H3C4HC3NHCO2HCNC2H2CO2HCNC2H2CO2HCNC2H2CO2HC4HC3NHCO2HC4HC3NHCO2HC4HC3NHCO2HC4HC3NHCO2HCNC2H2CO2HCNC2H2CO2HC4HC3NHCO2HCNC2H2CO2HCNC2H2CO2HCNC2H2CO2HC4HC3NHCO2HC4HC3NHCO2HC4HC3NHCO2HC4HC3NHCO2HCNC2H2CO2HCNC2H2CO2HC4HC3NHCO2HC4HC3NHCO2HCNC2H2CO2HCNC2H2CO2HC4HC3NHCO2HC4HC3NHCO2HCNC2H2CO2HCNC2H2CO2HC4HC3NHCO2HC4HC3NHCO2HCNC2H2CO2HCNC2H2CO2HC4HC3NHCO2HC4HC3NHCO2HCNC2H2CO2HCNC2H2CO2H
_chemical_formula_sum              "C576 N72 H288 O144"
_cell_length_a       63.997
_cell_length_b       81.3719
_cell_length_c       14.9268
_cell_angle_alpha    90
_cell_angle_beta     90
_cell_angle_gamma    90

_space_group_name_H-M_alt    "P 1"
_space_group_IT_number       1

loop_
  _space_group_symop_operation_xyz
  'x, y, z'

loop_
  _atom_site_type_symbol
  _atom_site_label
  _atom_site_symmetry_multiplicity
  _atom_site_fract_x
  _atom_site_fract_y
  _atom_site_fract_z
  _atom_site_occupancy
  C   C1        1.0  0.52251  0.97103  0.26976  1.0000
  N   N1        1.0  0.51044  0.98470  0.27502  1.0000
  C   C2        1.0  0.47638  0.00949  0.28825  1.0000
  C   C3        1.0  0.46460  0.02428  0.28826  1.0000
  H   H1        1.0  0.45151  0.02497  0.24894  1.0000
  H   H2        1.0  0.52287  0.96456  0.21111  1.0000
  C   C4        1.0  0.46883  0.99610  0.24029  1.0000
  O   O1        1.0  0.46592  0.99770  0.15983  1.0000
  O   O2        1.0  0.45826  0.98529  0.27683  1.0000
  H   H3        1.0  0.45790  0.98345  0.33530  1.0000
  C   C5        1.0  0.97057  0.46601  0.33203  1.0000
  C   C6        1.0  0.99668  0.49437  0.32746  1.0000
  C   C7        1.0  0.98499  0.48979  0.24983  1.0000
  C   C8        1.0  0.97206  0.47562  0.25358  1.0000
  H   H4        1.0  0.96406  0.47193  0.19757  1.0000
  C   C9        1.0  0.01024  0.50847  0.33396  1.0000
  C   C10       1.0  0.03445  0.53816  0.33668  1.0000
  C   C11       1.0  0.01604  0.53640  0.28522  1.0000
  N   N2        1.0  0.00509  0.52213  0.28613  1.0000
  H   H5        1.0  0.01082  0.54564  0.24471  1.0000
  C   C12       1.0  0.98713  0.49790  0.16885  1.0000
  O   O3        1.0  0.97140  0.50284  0.13052  1.0000
  O   O4        1.0  0.00310  0.49500  0.12506  1.0000
  H   H6        1.0  0.00540  0.49874  0.07024  1.0000
  C   C13       1.0  0.29080  0.07506  0.32494  1.0000
  C   C14       1.0  0.33465  0.06966  0.31868  1.0000
  C   C15       1.0  0.32393  0.07527  0.24053  1.0000
  C   C16       1.0  0.30207  0.07796  0.24526  1.0000
  H   H7        1.0  0.29415  0.08206  0.18986  1.0000
  C   C17       1.0  0.35690  0.06755  0.32550  1.0000
  C   C18       1.0  0.40157  0.06699  0.33219  1.0000
  C   C19       1.0  0.39028  0.07826  0.27883  1.0000
  N   N3        1.0  0.36913  0.07812  0.27824  1.0000
  H   H8        1.0  0.39772  0.08666  0.23921  1.0000
  C   C20       1.0  0.33392  0.07742  0.15913  1.0000
  O   O5        1.0  0.33212  0.09058  0.11985  1.0000
  O   O6        1.0  0.33866  0.06490  0.11692  1.0000
  H   H9        1.0  0.34400  0.06497  0.06220  1.0000
  C   C21       1.0  0.71409  0.93010  0.32551  1.0000
  C   C22       1.0  0.67022  0.93553  0.31956  1.0000
  C   C23       1.0  0.68091  0.92989  0.24138  1.0000
  C   C24       1.0  0.70278  0.92719  0.24596  1.0000
  H   H10       1.0  0.71066  0.92306  0.19054  1.0000
  C   C25       1.0  0.64796  0.93760  0.32659  1.0000
  C   C26       1.0  0.60327  0.93801  0.33368  1.0000
  C   C27       1.0  0.61461  0.92686  0.27975  1.0000
  N   N4        1.0  0.63575  0.92706  0.27904  1.0000
  H   H11       1.0  0.60720  0.91850  0.23980  1.0000
  C   C28       1.0  0.67090  0.92770  0.16007  1.0000
  O   O7        1.0  0.67262  0.91450  0.12114  1.0000
  O   O8        1.0  0.66621  0.94019  0.11755  1.0000
  H   H12       1.0  0.66086  0.94009  0.06285  1.0000
  C   C29       1.0  0.20288  0.56938  0.27656  1.0000
  N   N5        1.0  0.18191  0.56717  0.28253  1.0000
  C   C30       1.0  0.13759  0.55586  0.29559  1.0000
  C   C31       1.0  0.11540  0.55571  0.29388  1.0000
  H   H13       1.0  0.10788  0.54740  0.25365  1.0000
  H   H14       1.0  0.21011  0.56748  0.21640  1.0000
  C   C32       1.0  0.14849  0.54402  0.24735  1.0000
  O   O9        1.0  0.14519  0.54282  0.16695  1.0000
  O   O10       1.0  0.15536  0.53149  0.28378  1.0000
  H   H15       1.0  0.15728  0.53034  0.34222  1.0000
  C   C33       1.0  0.80202  0.43582  0.27599  1.0000
  N   N6        1.0  0.82298  0.43803  0.28182  1.0000
  C   C34       1.0  0.86740  0.44920  0.29408  1.0000
  C   C35       1.0  0.88960  0.44929  0.29220  1.0000
  H   H16       1.0  0.89714  0.45753  0.25166  1.0000
  H   H17       1.0  0.79475  0.43773  0.21591  1.0000
  C   C36       1.0  0.85654  0.46102  0.24557  1.0000
  O   O11       1.0  0.85981  0.46213  0.16511  1.0000
  O   O12       1.0  0.84973  0.47360  0.28166  1.0000
  H   H18       1.0  0.84784  0.47481  0.34008  1.0000
  C   C37       1.0  0.50880  0.17052  0.28056  1.0000
  N   N7        1.0  0.50183  0.15482  0.28636  1.0000
  C   C38       1.0  0.49475  0.11871  0.29934  1.0000
  C   C39       1.0  0.48525  0.10295  0.29762  1.0000
  H   H19       1.0  0.49161  0.09396  0.25809  1.0000
  H   H20       1.0  0.51501  0.17454  0.22140  1.0000
  C   C40       1.0  0.51323  0.12114  0.25216  1.0000
  O   O13       1.0  0.51337  0.11830  0.17174  1.0000
  O   O14       1.0  0.53044  0.12037  0.28955  1.0000
  H   H21       1.0  0.53243  0.12120  0.34810  1.0000
  C   C41       1.0  0.49608  0.83413  0.27992  1.0000
  N   N8        1.0  0.50309  0.84981  0.28547  1.0000
  C   C42       1.0  0.51016  0.88594  0.29863  1.0000
  C   C43       1.0  0.51967  0.90170  0.29690  1.0000
  H   H22       1.0  0.51320  0.91073  0.25794  1.0000
  H   H23       1.0  0.48984  0.83009  0.22085  1.0000
  C   C44       1.0  0.49157  0.88354  0.25220  1.0000
  O   O15       1.0  0.49124  0.88644  0.17185  1.0000
  O   O16       1.0  0.47445  0.88429  0.29032  1.0000
  H   H24       1.0  0.47260  0.88341  0.34894  1.0000
  C   C45       1.0  0.99832  0.68117  0.32218  1.0000
  C   C46       1.0  0.01187  0.64792  0.31597  1.0000
  C   C47       1.0  0.01420  0.65816  0.23889  1.0000
  C   C48       1.0  0.00745  0.67474  0.24363  1.0000
  H   H25       1.0  0.00884  0.68221  0.18861  1.0000
  C   C49       1.0  0.01917  0.63126  0.32280  1.0000
  C   C50       1.0  0.03799  0.59939  0.32935  1.0000
  C   C51       1.0  0.04614  0.61237  0.27704  1.0000
  N   N9        1.0  0.03676  0.62727  0.27650  1.0000
  H   H26       1.0  0.05910  0.61081  0.23804  1.0000
  C   C52       1.0  0.02160  0.65224  0.15794  1.0000
  O   O17       1.0  0.03600  0.65945  0.12070  1.0000
  O   O18       1.0  0.00962  0.64355  0.11359  1.0000
  H   H27       1.0  0.01236  0.63995  0.05886  1.0000
  C   C53       1.0  0.00662  0.32350  0.32267  1.0000
  C   C54       1.0  0.99297  0.35672  0.31697  1.0000
  C   C55       1.0  0.99063  0.34652  0.23976  1.0000
  C   C56       1.0  0.99744  0.32995  0.24425  1.0000
  H   H28       1.0  0.99605  0.32250  0.18915  1.0000
  C   C57       1.0  0.98563  0.37337  0.32400  1.0000
  C   C58       1.0  0.96682  0.40523  0.33067  1.0000
  C   C59       1.0  0.95855  0.39221  0.27901  1.0000
  N   N10       1.0  0.96794  0.37731  0.27833  1.0000
  H   H29       1.0  0.94552  0.39374  0.24035  1.0000
  C   C60       1.0  0.98320  0.35247  0.15894  1.0000
  O   O19       1.0  0.96885  0.34523  0.12152  1.0000
  O   O20       1.0  0.99513  0.36125  0.11479  1.0000
  H   H30       1.0  0.99236  0.36488  0.06014  1.0000
  C   C61       1.0  0.45871  0.49595  0.26734  1.0000
  N   N11       1.0  0.47882  0.50112  0.27176  1.0000
  C   C62       1.0  0.51848  0.51999  0.28338  1.0000
  C   C63       1.0  0.53983  0.52466  0.28285  1.0000
  H   H31       1.0  0.54435  0.53430  0.24317  1.0000
  H   H32       1.0  0.45082  0.49698  0.20809  1.0000
  C   C64       1.0  0.50423  0.52942  0.23537  1.0000
  O   O21       1.0  0.50692  0.53107  0.15480  1.0000
  O   O22       1.0  0.49407  0.54049  0.27173  1.0000
  H   H33       1.0  0.49199  0.54135  0.33023  1.0000
  C   C65       1.0  0.05577  0.98914  0.33278  1.0000
  C   C66       1.0  0.01380  0.00056  0.33018  1.0000
  C   C67       1.0  0.02278  0.99371  0.25096  1.0000
  C   C68       1.0  0.04375  0.98806  0.25377  1.0000
  H   H34       1.0  0.05058  0.98344  0.19697  1.0000
  C   C69       1.0  0.99277  0.00662  0.33771  1.0000
  C   C70       1.0  0.94982  0.01643  0.34150  1.0000
  C   C71       1.0  0.95707  0.00309  0.28943  1.0000
  N   N12       1.0  0.97758  0.99890  0.28969  1.0000
  H   H35       1.0  0.94723  0.99665  0.24859  1.0000
  C   C72       1.0  0.01229  0.99352  0.16988  1.0000
  O   O23       1.0  0.01091  0.98053  0.12869  1.0000
  O   O24       1.0  0.01110  0.00669  0.12893  1.0000
  H   H36       1.0  0.00588  0.00771  0.07428  1.0000
  C   C73       1.0  0.39813  0.44413  0.33561  1.0000
  C   C74       1.0  0.38964  0.40984  0.33102  1.0000
  C   C75       1.0  0.39760  0.41786  0.25306  1.0000
  C   C76       1.0  0.40179  0.43497  0.25692  1.0000
  H   H37       1.0  0.40721  0.44096  0.20110  1.0000
  C   C77       1.0  0.38521  0.39254  0.33792  1.0000
  C   C78       1.0  0.37988  0.35759  0.34166  1.0000
  C   C79       1.0  0.39535  0.36541  0.28925  1.0000
  N   N13       1.0  0.39731  0.38199  0.28977  1.0000
  H   H38       1.0  0.40503  0.35886  0.24827  1.0000
  C   C80       1.0  0.40002  0.40981  0.17207  1.0000
  O   O25       1.0  0.41695  0.41051  0.13382  1.0000
  O   O26       1.0  0.38399  0.40710  0.12832  1.0000
  H   H39       1.0  0.38392  0.40294  0.07351  1.0000
  C   C81       1.0  0.60755  0.56087  0.33288  1.0000
  C   C82       1.0  0.61603  0.59518  0.32926  1.0000
  C   C83       1.0  0.60789  0.58726  0.25135  1.0000
  C   C84       1.0  0.60367  0.57015  0.25476  1.0000
  H   H40       1.0  0.59805  0.56425  0.19904  1.0000
  C   C85       1.0  0.62037  0.61248  0.33680  1.0000
  C   C86       1.0  0.62548  0.64745  0.34163  1.0000
  C   C87       1.0  0.61005  0.63963  0.28900  1.0000
  N   N14       1.0  0.60821  0.62304  0.28902  1.0000
  H   H41       1.0  0.60034  0.64619  0.24817  1.0000
  C   C88       1.0  0.60526  0.59541  0.17076  1.0000
  O   O27       1.0  0.58823  0.59478  0.13333  1.0000
  O   O28       1.0  0.62118  0.59818  0.12637  1.0000
  H   H42       1.0  0.62110  0.60241  0.07172  1.0000
  C   C89       1.0  0.11468  0.93568  0.26591  1.0000
  N   N15       1.0  0.11828  0.91930  0.27118  1.0000
  C   C90       1.0  0.13543  0.88543  0.28326  1.0000
  C   C91       1.0  0.13783  0.86810  0.28270  1.0000
  H   H43       1.0  0.14912  0.86303  0.24270  1.0000
  H   H44       1.0  0.11743  0.94163  0.20676  1.0000
  C   C92       1.0  0.14955  0.89495  0.23501  1.0000
  O   O29       1.0  0.15120  0.89254  0.15449  1.0000
  O   O30       1.0  0.16503  0.90114  0.27125  1.0000
  H   H45       1.0  0.16644  0.90267  0.32971  1.0000
  C   C93       1.0  0.88920  0.06922  0.26877  1.0000
  N   N16       1.0  0.88564  0.08562  0.27352  1.0000
  C   C94       1.0  0.86884  0.11961  0.28412  1.0000
  C   C95       1.0  0.86656  0.13695  0.28304  1.0000
  H   H46       1.0  0.85530  0.14203  0.24289  1.0000
  H   H47       1.0  0.88635  0.06321  0.20991  1.0000
  C   C96       1.0  0.85469  0.11010  0.23602  1.0000
  O   O31       1.0  0.85314  0.11242  0.15538  1.0000
  O   O32       1.0  0.83911  0.10406  0.27223  1.0000
  H   H48       1.0  0.83764  0.10261  0.33071  1.0000
  C   C97       1.0  0.30161  0.55627  0.26781  1.0000
  N   N17       1.0  0.31754  0.54534  0.27311  1.0000
  C   C98       1.0  0.35862  0.52859  0.28934  1.0000
  C   C99       1.0  0.37489  0.51675  0.28958  1.0000
  H   H49       1.0  0.38804  0.51899  0.25239  1.0000
  H   H50       1.0  0.29936  0.56255  0.20931  1.0000
  C   C100      1.0  0.36179  0.54334  0.24418  1.0000
  O   O33       1.0  0.36576  0.54284  0.16411  1.0000
  O   O34       1.0  0.36802  0.55576  0.28366  1.0000
  H   H51       1.0  0.36729  0.55729  0.34234  1.0000
  C   C101      1.0  0.70316  0.44871  0.26864  1.0000
  N   N18       1.0  0.68714  0.45955  0.27435  1.0000
  C   C102      1.0  0.64605  0.47627  0.29034  1.0000
  C   C103      1.0  0.62981  0.48813  0.29044  1.0000
  H   H52       1.0  0.61678  0.48599  0.25235  1.0000
  H   H53       1.0  0.70542  0.44248  0.20998  1.0000
  C   C104      1.0  0.64298  0.46161  0.24423  1.0000
  O   O35       1.0  0.63916  0.46226  0.16405  1.0000
  O   O36       1.0  0.63670  0.44911  0.28281  1.0000
  H   H54       1.0  0.63732  0.44747  0.34142  1.0000
  C   C105      1.0  0.21632  0.05890  0.33398  1.0000
  C   C106      1.0  0.18229  0.03640  0.32935  1.0000
  C   C107      1.0  0.19508  0.03852  0.25184  1.0000
  C   C108      1.0  0.21199  0.04980  0.25561  1.0000
  H   H55       1.0  0.22082  0.05192  0.19948  1.0000
  C   C109      1.0  0.16461  0.02553  0.33548  1.0000
  C   C110      1.0  0.13142  0.00191  0.33767  1.0000
  C   C111      1.0  0.15013  0.99951  0.28905  1.0000
  N   N19       1.0  0.16542  0.01105  0.28994  1.0000
  H   H56       1.0  0.15233  0.98929  0.25047  1.0000
  C   C112      1.0  0.19043  0.03108  0.17089  1.0000
  O   O37       1.0  0.20418  0.02338  0.13201  1.0000
  O   O38       1.0  0.17576  0.03693  0.12749  1.0000
  H   H57       1.0  0.17232  0.03377  0.07268  1.0000
  C   C113      1.0  0.78866  0.94608  0.33331  1.0000
  C   C114      1.0  0.82287  0.96842  0.32784  1.0000
  C   C115      1.0  0.81001  0.96630  0.25052  1.0000
  C   C116      1.0  0.79302  0.95510  0.25471  1.0000
  H   H58       1.0  0.78414  0.95298  0.19871  1.0000
  C   C117      1.0  0.84061  0.97924  0.33370  1.0000
  C   C118      1.0  0.87377  0.00290  0.33611  1.0000
  C   C119      1.0  0.85518  0.00518  0.28642  1.0000
  N   N20       1.0  0.83990  0.99364  0.28735  1.0000
  H   H59       1.0  0.85303  0.01534  0.24738  1.0000
  C   C120      1.0  0.81465  0.97367  0.16937  1.0000
  O   O39       1.0  0.80095  0.98144  0.13068  1.0000
  O   O40       1.0  0.82922  0.96770  0.12577  1.0000
  H   H60       1.0  0.83263  0.97082  0.07086  1.0000
  C   C121      1.0  0.22859  0.12551  0.27157  1.0000
  N   N21       1.0  0.22387  0.14169  0.27784  1.0000
  C   C122      1.0  0.20440  0.17474  0.29182  1.0000
  C   C123      1.0  0.20129  0.19199  0.29145  1.0000
  H   H61       1.0  0.18986  0.19682  0.25125  1.0000
  H   H62       1.0  0.22674  0.11967  0.21145  1.0000
  C   C124      1.0  0.19084  0.16485  0.24289  1.0000
  O   O41       1.0  0.18908  0.16736  0.16249  1.0000
  O   O42       1.0  0.17571  0.15805  0.27863  1.0000
  H   H63       1.0  0.17436  0.15637  0.33698  1.0000
  C   C125      1.0  0.77631  0.87956  0.27173  1.0000
  N   N22       1.0  0.78110  0.86339  0.27806  1.0000
  C   C126      1.0  0.80064  0.83038  0.29211  1.0000
  C   C127      1.0  0.80383  0.81313  0.29179  1.0000
  H   H64       1.0  0.81527  0.80833  0.25159  1.0000
  H   H65       1.0  0.77822  0.88541  0.21166  1.0000
  C   C128      1.0  0.81416  0.84029  0.24313  1.0000
  O   O43       1.0  0.81592  0.83778  0.16273  1.0000
  O   O44       1.0  0.82927  0.84713  0.27882  1.0000
  H   H66       1.0  0.83062  0.84882  0.33717  1.0000
  C   C129      1.0  0.26850  0.61714  0.32950  1.0000
  C   C130      1.0  0.27923  0.65094  0.32290  1.0000
  C   C131      1.0  0.27138  0.64301  0.24450  1.0000
  C   C132      1.0  0.26606  0.62611  0.24934  1.0000
  H   H67       1.0  0.26065  0.62014  0.19344  1.0000
  C   C133      1.0  0.28452  0.66804  0.32908  1.0000
  C   C134      1.0  0.29124  0.70275  0.33261  1.0000
  C   C135      1.0  0.27555  0.69533  0.27965  1.0000
  N   N23       1.0  0.27291  0.67883  0.28037  1.0000
  H   H68       1.0  0.26617  0.70213  0.23859  1.0000
  C   C136      1.0  0.27002  0.65092  0.16262  1.0000
  O   O45       1.0  0.25342  0.65062  0.12166  1.0000
  O   O46       1.0  0.28654  0.65327  0.12166  1.0000
  H   H69       1.0  0.28725  0.65735  0.06674  1.0000
  C   C137      1.0  0.73651  0.38791  0.32950  1.0000
  C   C138      1.0  0.72565  0.35414  0.32275  1.0000
  C   C139      1.0  0.73360  0.36205  0.24449  1.0000
  C   C140      1.0  0.73899  0.37893  0.24940  1.0000
  H   H70       1.0  0.74446  0.38488  0.19356  1.0000
  C   C141      1.0  0.72027  0.33704  0.32886  1.0000
  C   C142      1.0  0.71342  0.30235  0.33229  1.0000
  C   C143      1.0  0.72912  0.30974  0.27933  1.0000
  N   N24       1.0  0.73184  0.32624  0.28011  1.0000
  H   H71       1.0  0.73849  0.30292  0.23826  1.0000
  C   C144      1.0  0.73499  0.35414  0.16261  1.0000
  O   O47       1.0  0.75163  0.35439  0.12193  1.0000
  O   O48       1.0  0.71850  0.35184  0.12139  1.0000
  H   H72       1.0  0.71782  0.34776  0.06644  1.0000
  C   C145      1.0  0.24863  0.26859  0.27823  1.0000
  N   N25       1.0  0.26541  0.27863  0.28631  1.0000
  C   C146      1.0  0.29700  0.30534  0.30192  1.0000
  C   C147      1.0  0.31646  0.31370  0.30080  1.0000
  H   H73       1.0  0.31836  0.32364  0.25947  1.0000
  H   H74       1.0  0.24121  0.26777  0.21777  1.0000
  C   C148      1.0  0.28050  0.31151  0.25153  1.0000
  O   O49       1.0  0.28308  0.31367  0.17124  1.0000
  O   O50       1.0  0.26647  0.31982  0.28605  1.0000
  H   H75       1.0  0.26374  0.32019  0.34420  1.0000
  C   C149      1.0  0.75652  0.73653  0.27826  1.0000
  N   N26       1.0  0.73974  0.72650  0.28632  1.0000
  C   C150      1.0  0.70817  0.69979  0.30200  1.0000
  C   C151      1.0  0.68870  0.69143  0.30093  1.0000
  H   H76       1.0  0.68681  0.68148  0.25965  1.0000
  H   H77       1.0  0.76394  0.73737  0.21778  1.0000
  C   C152      1.0  0.72467  0.69361  0.25167  1.0000
  O   O51       1.0  0.72210  0.69146  0.17137  1.0000
  O   O52       1.0  0.73867  0.68529  0.28623  1.0000
  H   H78       1.0  0.74139  0.68492  0.34439  1.0000
  C   C153      1.0  0.26274  0.75911  0.32444  1.0000
  C   C154      1.0  0.22824  0.78085  0.31363  1.0000
  C   C155      1.0  0.23438  0.77167  0.23645  1.0000
  C   C156      1.0  0.25165  0.76084  0.24339  1.0000
  H   H79       1.0  0.25649  0.75433  0.18834  1.0000
  C   C157      1.0  0.21020  0.79127  0.31843  1.0000
  C   C158      1.0  0.17128  0.80827  0.32379  1.0000
  C   C159      1.0  0.17468  0.79442  0.26868  1.0000
  N   N27       1.0  0.19333  0.78665  0.26921  1.0000
  H   H80       1.0  0.16317  0.78983  0.22839  1.0000
  C   C160      1.0  0.22495  0.77368  0.15370  1.0000
  O   O53       1.0  0.21852  0.76154  0.11359  1.0000
  O   O54       1.0  0.22902  0.78639  0.11197  1.0000
  H   H81       1.0  0.22474  0.78841  0.05663  1.0000
  C   C161      1.0  0.74189  0.24600  0.32433  1.0000
  C   C162      1.0  0.77641  0.22429  0.31359  1.0000
  C   C163      1.0  0.77025  0.23344  0.23635  1.0000
  C   C164      1.0  0.75298  0.24426  0.24327  1.0000
  H   H82       1.0  0.74812  0.25075  0.18819  1.0000
  C   C165      1.0  0.79446  0.21387  0.31841  1.0000
  C   C166      1.0  0.83337  0.19687  0.32374  1.0000
  C   C167      1.0  0.82998  0.21074  0.26873  1.0000
  N   N28       1.0  0.81133  0.21851  0.26926  1.0000
  H   H83       1.0  0.84149  0.21533  0.22846  1.0000
  C   C168      1.0  0.77968  0.23142  0.15360  1.0000
  O   O55       1.0  0.78606  0.24355  0.11330  1.0000
  O   O56       1.0  0.77567  0.21866  0.11207  1.0000
  H   H84       1.0  0.77995  0.21664  0.05676  1.0000
  C   C169      1.0  0.47989  0.24561  0.26326  1.0000
  N   N29       1.0  0.46517  0.25756  0.26511  1.0000
  C   C170      1.0  0.42444  0.27488  0.26999  1.0000
  C   C171      1.0  0.40870  0.28709  0.26939  1.0000
  H   H85       1.0  0.39608  0.28563  0.22789  1.0000
  H   H86       1.0  0.48437  0.24083  0.20292  1.0000
  C   C172      1.0  0.42152  0.26077  0.21876  1.0000
  O   O57       1.0  0.41930  0.26233  0.13786  1.0000
  O   O58       1.0  0.41357  0.24826  0.25118  1.0000
  H   H87       1.0  0.41287  0.24607  0.30924  1.0000
  C   C173      1.0  0.52487  0.75903  0.26335  1.0000
  N   N30       1.0  0.53966  0.74714  0.26527  1.0000
  C   C174      1.0  0.58053  0.73001  0.27037  1.0000
  C   C175      1.0  0.59634  0.71787  0.26986  1.0000
  H   H88       1.0  0.60897  0.71937  0.22839  1.0000
  H   H89       1.0  0.52036  0.76378  0.20297  1.0000
  C   C176      1.0  0.58336  0.74412  0.21906  1.0000
  O   O59       1.0  0.58560  0.74256  0.13817  1.0000
  O   O60       1.0  0.59122  0.75667  0.25142  1.0000
  H   H90       1.0  0.59189  0.75888  0.30947  1.0000
  C   C177      1.0  0.01655  0.73977  0.33229  1.0000
  C   C178      1.0  0.04716  0.76480  0.33554  1.0000
  C   C179      1.0  0.03860  0.75970  0.25185  1.0000
  C   C180      1.0  0.02339  0.74703  0.25165  1.0000
  H   H91       1.0  0.01736  0.74289  0.19215  1.0000
  C   C181      1.0  0.06343  0.77669  0.34596  1.0000
  C   C182      1.0  0.09539  0.80094  0.34979  1.0000
  C   C183      1.0  0.07768  0.80238  0.29405  1.0000
  N   N31       1.0  0.06291  0.79042  0.29377  1.0000
  H   H92       1.0  0.07625  0.81185  0.24956  1.0000
  C   C184      1.0  0.04564  0.76587  0.17095  1.0000
  O   O61       1.0  0.03287  0.77167  0.11855  1.0000
  O   O62       1.0  0.06239  0.76045  0.14228  1.0000
  H   H93       1.0  0.06760  0.76283  0.08889  1.0000
  C   C185      1.0  0.98849  0.26489  0.33219  1.0000
  C   C186      1.0  0.95775  0.23997  0.33529  1.0000
  C   C187      1.0  0.96629  0.24509  0.25161  1.0000
  C   C188      1.0  0.98157  0.25771  0.25149  1.0000
  H   H94       1.0  0.98757  0.26188  0.19200  1.0000
  C   C189      1.0  0.94141  0.22814  0.34562  1.0000
  C   C190      1.0  0.90931  0.20402  0.34937  1.0000
  C   C191      1.0  0.92700  0.20253  0.29356  1.0000
  N   N32       1.0  0.94185  0.21443  0.29334  1.0000
  H   H95       1.0  0.92837  0.19305  0.24904  1.0000
  C   C192      1.0  0.95918  0.23899  0.17067  1.0000
  O   O63       1.0  0.97190  0.23319  0.11802  1.0000
  O   O64       1.0  0.94244  0.24448  0.14228  1.0000
  H   H96       1.0  0.93719  0.24214  0.08889  1.0000
  C   C193      1.0  0.07489  0.28264  0.27151  1.0000
  N   N33       1.0  0.09482  0.27711  0.27651  1.0000
  C   C194      1.0  0.14070  0.27238  0.28933  1.0000
  C   C195      1.0  0.16095  0.26533  0.28818  1.0000
  H   H97       1.0  0.17230  0.27070  0.24965  1.0000
  H   H98       1.0  0.06949  0.28714  0.21191  1.0000
  C   C196      1.0  0.13729  0.28698  0.24309  1.0000
  O   O65       1.0  0.14095  0.28732  0.16273  1.0000
  O   O66       1.0  0.13799  0.30044  0.28137  1.0000
  H   H99       1.0  0.13688  0.30186  0.34002  1.0000
  C   C197      1.0  0.93013  0.72215  0.27142  1.0000
  N   N34       1.0  0.91024  0.72776  0.27634  1.0000
  C   C198      1.0  0.86439  0.73265  0.28898  1.0000
  C   C199      1.0  0.84417  0.73974  0.28781  1.0000
  H   H100      1.0  0.83279  0.73440  0.24928  1.0000
  H   H101      1.0  0.93552  0.71764  0.21184  1.0000
  C   C200      1.0  0.86774  0.71804  0.24276  1.0000
  O   O67       1.0  0.86409  0.71771  0.16239  1.0000
  O   O68       1.0  0.86694  0.70458  0.28104  1.0000
  H   H102      1.0  0.86803  0.70315  0.33969  1.0000
  C   C201      1.0  0.44312  0.78142  0.32959  1.0000
  C   C202      1.0  0.40106  0.77057  0.32541  1.0000
  C   C203      1.0  0.41367  0.76916  0.24691  1.0000
  C   C204      1.0  0.43470  0.77458  0.25064  1.0000
  H   H103      1.0  0.44401  0.77371  0.19492  1.0000
  C   C205      1.0  0.37990  0.76495  0.33297  1.0000
  C   C206      1.0  0.33896  0.75110  0.33812  1.0000
  C   C207      1.0  0.35534  0.74415  0.28726  1.0000
  N   N35       1.0  0.37452  0.75115  0.28691  1.0000
  H   H104      1.0  0.35298  0.73406  0.24779  1.0000
  C   C208      1.0  0.40579  0.76361  0.16603  1.0000
  O   O69       1.0  0.41492  0.75253  0.12652  1.0000
  O   O70       1.0  0.39442  0.77314  0.12382  1.0000
  H   H105      1.0  0.38960  0.77117  0.06927  1.0000
  C   C209      1.0  0.56166  0.22333  0.32966  1.0000
  C   C210      1.0  0.60367  0.23434  0.32564  1.0000
  C   C211      1.0  0.59106  0.23571  0.24711  1.0000
  C   C212      1.0  0.57006  0.23022  0.25077  1.0000
  H   H106      1.0  0.56075  0.23107  0.19503  1.0000
  C   C213      1.0  0.62480  0.24003  0.33327  1.0000
  C   C214      1.0  0.66568  0.25399  0.33844  1.0000
  C   C215      1.0  0.64927  0.26090  0.28760  1.0000
  N   N36       1.0  0.63012  0.25384  0.28722  1.0000
  H   H107      1.0  0.65160  0.27099  0.24810  1.0000
  C   C216      1.0  0.59892  0.24130  0.16628  1.0000
  O   O71       1.0  0.58973  0.25237  0.12682  1.0000
  O   O72       1.0  0.61034  0.23182  0.12404  1.0000
  H   H108      1.0  0.61516  0.23382  0.06951  1.0000
  C   C217      1.0  0.45679  0.08365  0.34348  1.0000
  C   C218      1.0  0.43474  0.08257  0.33965  1.0000
  C   C219      1.0  0.42401  0.06738  0.33619  1.0000
  C   C220      1.0  0.43620  0.05284  0.33729  1.0000
  C   C221      1.0  0.45838  0.05312  0.34010  1.0000
  C   C222      1.0  0.46824  0.06874  0.34295  1.0000
  H   H109      1.0  0.42868  0.04175  0.33562  1.0000
  H   H110      1.0  0.48419  0.06930  0.34490  1.0000
  H   H111      1.0  0.42621  0.09321  0.33938  1.0000
  C   C223      1.0  0.54812  0.92101  0.34267  1.0000
  C   C224      1.0  0.57019  0.92224  0.33958  1.0000
  C   C225      1.0  0.58083  0.93752  0.33787  1.0000
  C   C226      1.0  0.56855  0.95201  0.34078  1.0000
  C   C227      1.0  0.54646  0.95135  0.34226  1.0000
  C   C228      1.0  0.53651  0.93584  0.34275  1.0000
  H   H112      1.0  0.57572  0.96325  0.33848  1.0000
  H   H113      1.0  0.52054  0.93539  0.34667  1.0000
  H   H114      1.0  0.57880  0.91166  0.33863  1.0000
  C   C229      1.0  0.04812  0.58365  0.33300  1.0000
  C   C230      1.0  0.07017  0.58257  0.33682  1.0000
  C   C231      1.0  0.08090  0.56738  0.34027  1.0000
  C   C232      1.0  0.06871  0.55284  0.33917  1.0000
  C   C233      1.0  0.04653  0.55312  0.33637  1.0000
  C   C234      1.0  0.03667  0.56874  0.33353  1.0000
  H   H115      1.0  0.07623  0.54175  0.34084  1.0000
  H   H116      1.0  0.02072  0.56930  0.33159  1.0000
  H   H117      1.0  0.07870  0.59321  0.33709  1.0000
  C   C235      1.0  0.95679  0.42102  0.33379  1.0000
  C   C236      1.0  0.93472  0.42225  0.33690  1.0000
  C   C237      1.0  0.92407  0.43752  0.33862  1.0000
  C   C238      1.0  0.93635  0.45202  0.33577  1.0000
  C   C239      1.0  0.95844  0.45136  0.33421  1.0000
  C   C240      1.0  0.96839  0.43584  0.33367  1.0000
  H   H118      1.0  0.92918  0.46326  0.33803  1.0000
  H   H119      1.0  0.98436  0.43539  0.32980  1.0000
  H   H120      1.0  0.92610  0.41166  0.33785  1.0000
  C   C241      1.0  0.42806  0.48372  0.34147  1.0000
  C   C242      1.0  0.42341  0.46677  0.34023  1.0000
  C   C243      1.0  0.40250  0.46123  0.33923  1.0000
  C   C244      1.0  0.38615  0.47293  0.33966  1.0000
  C   C245      1.0  0.39021  0.49008  0.34001  1.0000
  C   C246      1.0  0.41144  0.49516  0.34107  1.0000
  H   H121      1.0  0.37105  0.46881  0.33641  1.0000
  H   H122      1.0  0.41497  0.50742  0.34409  1.0000
  H   H123      1.0  0.43536  0.45838  0.33998  1.0000
  C   C247      1.0  0.57659  0.52158  0.33635  1.0000
  C   C248      1.0  0.58191  0.53847  0.33459  1.0000
  C   C249      1.0  0.60289  0.54381  0.33639  1.0000
  C   C250      1.0  0.61898  0.53195  0.33953  1.0000
  C   C251      1.0  0.61457  0.51487  0.34034  1.0000
  C   C252      1.0  0.59323  0.51007  0.33942  1.0000
  H   H124      1.0  0.63417  0.53589  0.33778  1.0000
  H   H125      1.0  0.58968  0.49782  0.34052  1.0000
  H   H126      1.0  0.57032  0.54715  0.33453  1.0000
  C   C253      1.0  0.07685  0.98372  0.33502  1.0000
  C   C254      1.0  0.08150  0.96677  0.33625  1.0000
  C   C255      1.0  0.10240  0.96123  0.33727  1.0000
  C   C256      1.0  0.11875  0.97293  0.33688  1.0000
  C   C257      1.0  0.11469  0.99008  0.33648  1.0000
  C   C258      1.0  0.09347  0.99516  0.33541  1.0000
  H   H127      1.0  0.13386  0.96882  0.34008  1.0000
  H   H128      1.0  0.08993  0.00742  0.33238  1.0000
  H   H129      1.0  0.06954  0.95839  0.33648  1.0000
  C   C259      1.0  0.92831  0.02158  0.34014  1.0000
  C   C260      1.0  0.92299  0.03847  0.34191  1.0000
  C   C261      1.0  0.90202  0.04381  0.34010  1.0000
  C   C262      1.0  0.88592  0.03195  0.33694  1.0000
  C   C263      1.0  0.89033  0.01487  0.33613  1.0000
  C   C264      1.0  0.91167  0.01007  0.33706  1.0000
  H   H130      1.0  0.87073  0.03589  0.33869  1.0000
  H   H131      1.0  0.91522  0.99781  0.33596  1.0000
  H   H132      1.0  0.93458  0.04715  0.34196  1.0000
  C   C265      1.0  0.24206  0.10033  0.34190  1.0000
  C   C266      1.0  0.26332  0.09581  0.33707  1.0000
  C   C267      1.0  0.26929  0.07912  0.33118  1.0000
  C   C268      1.0  0.25360  0.06686  0.33011  1.0000
  C   C269      1.0  0.23219  0.07112  0.33562  1.0000
  C   C270      1.0  0.22663  0.08792  0.34133  1.0000
  H   H133      1.0  0.25782  0.05474  0.32549  1.0000
  H   H134      1.0  0.21117  0.09117  0.34452  1.0000
  H   H135      1.0  0.27458  0.10477  0.33736  1.0000
  C   C271      1.0  0.76276  0.90472  0.34196  1.0000
  C   C272      1.0  0.74150  0.90930  0.33750  1.0000
  C   C273      1.0  0.73559  0.92600  0.33161  1.0000
  C   C274      1.0  0.75132  0.93822  0.33016  1.0000
  C   C275      1.0  0.77273  0.93391  0.33533  1.0000
  C   C276      1.0  0.77824  0.91710  0.34101  1.0000
  H   H136      1.0  0.74716  0.95035  0.32549  1.0000
  H   H137      1.0  0.79368  0.91382  0.34393  1.0000
  H   H138      1.0  0.73022  0.90036  0.33802  1.0000
  C   C277      1.0  0.26285  0.60033  0.33456  1.0000
  C   C278      1.0  0.24158  0.59580  0.33938  1.0000
  C   C279      1.0  0.23562  0.57911  0.34529  1.0000
  C   C280      1.0  0.25131  0.56686  0.34639  1.0000
  C   C281      1.0  0.27272  0.57113  0.34089  1.0000
  C   C282      1.0  0.27828  0.58792  0.33516  1.0000
  H   H139      1.0  0.24710  0.55474  0.35102  1.0000
  H   H140      1.0  0.29374  0.59118  0.33197  1.0000
  H   H141      1.0  0.23032  0.60477  0.33908  1.0000
  C   C283      1.0  0.74214  0.40473  0.33453  1.0000
  C   C284      1.0  0.76339  0.40930  0.33896  1.0000
  C   C285      1.0  0.76931  0.42600  0.34486  1.0000
  C   C286      1.0  0.75359  0.43822  0.34629  1.0000
  C   C287      1.0  0.73218  0.43391  0.34113  1.0000
  C   C288      1.0  0.72667  0.41711  0.33547  1.0000
  H   H142      1.0  0.75776  0.45035  0.35095  1.0000
  H   H143      1.0  0.71122  0.41383  0.33254  1.0000
  H   H144      1.0  0.77468  0.40035  0.33847  1.0000
  C   C289      1.0  0.39217  0.31196  0.33345  1.0000
  C   C290      1.0  0.37174  0.30550  0.33966  1.0000
  C   C291      1.0  0.35389  0.31563  0.34634  1.0000
  C   C292      1.0  0.35694  0.33285  0.34521  1.0000
  C   C293      1.0  0.37716  0.34002  0.34106  1.0000
  C   C294      1.0  0.39458  0.32923  0.33602  1.0000
  H   H145      1.0  0.34408  0.34029  0.34813  1.0000
  H   H146      1.0  0.40936  0.33400  0.33353  1.0000
  H   H147      1.0  0.36980  0.29301  0.33918  1.0000
  C   C295      1.0  0.61300  0.69305  0.33395  1.0000
  C   C296      1.0  0.63341  0.69956  0.34008  1.0000
  C   C297      1.0  0.65129  0.68947  0.34663  1.0000
  C   C298      1.0  0.64831  0.67224  0.34548  1.0000
  C   C299      1.0  0.62812  0.66502  0.34135  1.0000
  C   C300      1.0  0.61066  0.67577  0.33644  1.0000
  H   H148      1.0  0.66120  0.66483  0.34827  1.0000
  H   H149      1.0  0.59590  0.67097  0.33392  1.0000
  H   H150      1.0  0.63531  0.71206  0.33960  1.0000
  C   C301      1.0  0.11273  0.81196  0.34299  1.0000
  C   C302      1.0  0.13316  0.80550  0.33678  1.0000
  C   C303      1.0  0.15101  0.81563  0.33010  1.0000
  C   C304      1.0  0.14796  0.83286  0.33122  1.0000
  C   C305      1.0  0.12774  0.84003  0.33540  1.0000
  C   C306      1.0  0.11033  0.82924  0.34045  1.0000
  H   H151      1.0  0.16083  0.84030  0.32830  1.0000
  H   H152      1.0  0.09554  0.83400  0.34295  1.0000
  H   H153      1.0  0.13511  0.79301  0.33726  1.0000
  C   C307      1.0  0.89191  0.19305  0.34255  1.0000
  C   C308      1.0  0.87150  0.19956  0.33643  1.0000
  C   C309      1.0  0.85362  0.18948  0.32987  1.0000
  C   C310      1.0  0.85659  0.17224  0.33101  1.0000
  C   C311      1.0  0.87679  0.16503  0.33515  1.0000
  C   C312      1.0  0.89425  0.17577  0.34009  1.0000
  H   H154      1.0  0.84370  0.16483  0.32820  1.0000
  H   H155      1.0  0.90901  0.17097  0.34259  1.0000
  H   H156      1.0  0.86961  0.21206  0.33692  1.0000
  C   C313      1.0  0.21049  0.22023  0.34355  1.0000
  C   C314      1.0  0.22766  0.23120  0.34688  1.0000
  C   C315      1.0  0.22479  0.24839  0.34600  1.0000
  C   C316      1.0  0.20434  0.25479  0.34242  1.0000
  C   C317      1.0  0.18665  0.24435  0.33966  1.0000
  C   C318      1.0  0.19015  0.22714  0.34025  1.0000
  H   H157      1.0  0.20237  0.26727  0.34518  1.0000
  H   H158      1.0  0.17752  0.21944  0.33871  1.0000
  H   H159      1.0  0.24259  0.22667  0.34781  1.0000
  C   C319      1.0  0.79468  0.78487  0.34375  1.0000
  C   C320      1.0  0.77751  0.77390  0.34705  1.0000
  C   C321      1.0  0.78038  0.75671  0.34606  1.0000
  C   C322      1.0  0.80083  0.75031  0.34225  1.0000
  C   C323      1.0  0.81853  0.76075  0.33950  1.0000
  C   C324      1.0  0.81503  0.77796  0.34028  1.0000
  H   H160      1.0  0.80279  0.73783  0.34504  1.0000
  H   H161      1.0  0.82765  0.78566  0.33874  1.0000
  H   H162      1.0  0.76258  0.77842  0.34808  1.0000
  C   C325      1.0  0.29441  0.72023  0.33290  1.0000
  C   C326      1.0  0.27724  0.73120  0.32951  1.0000
  C   C327      1.0  0.28011  0.74839  0.33048  1.0000
  C   C328      1.0  0.30056  0.75479  0.33418  1.0000
  C   C329      1.0  0.31826  0.74435  0.33684  1.0000
  C   C330      1.0  0.31475  0.72714  0.33622  1.0000
  H   H163      1.0  0.30253  0.76727  0.33134  1.0000
  H   H164      1.0  0.32738  0.71944  0.33776  1.0000
  H   H165      1.0  0.26231  0.72667  0.32862  1.0000
  C   C331      1.0  0.71022  0.28487  0.33270  1.0000
  C   C332      1.0  0.72739  0.27390  0.32933  1.0000
  C   C333      1.0  0.72452  0.25671  0.33038  1.0000
  C   C334      1.0  0.70407  0.25031  0.33418  1.0000
  C   C335      1.0  0.68638  0.26075  0.33696  1.0000
  C   C336      1.0  0.68988  0.27796  0.33618  1.0000
  H   H166      1.0  0.70211  0.23783  0.33145  1.0000
  H   H167      1.0  0.67725  0.28566  0.33776  1.0000
  H   H168      1.0  0.74232  0.27842  0.32838  1.0000
  C   C337      1.0  0.00368  0.27749  0.33244  1.0000
  C   C338      1.0  0.99774  0.29415  0.32525  1.0000
  C   C339      1.0  0.01289  0.30680  0.32766  1.0000
  C   C340      1.0  0.03424  0.30252  0.33528  1.0000
  C   C341      1.0  0.04043  0.28588  0.34155  1.0000
  C   C342      1.0  0.02502  0.27346  0.34102  1.0000
  H   H169      1.0  0.04537  0.31158  0.33606  1.0000
  H   H170      1.0  0.02939  0.26136  0.34542  1.0000
  H   H171      1.0  0.98221  0.29711  0.32010  1.0000
  C   C343      1.0  0.00135  0.72718  0.33248  1.0000
  C   C344      1.0  0.00726  0.71052  0.32515  1.0000
  C   C345      1.0  0.99208  0.69789  0.32741  1.0000
  C   C346      1.0  0.97074  0.70219  0.33506  1.0000
  C   C347      1.0  0.96458  0.71884  0.34151  1.0000
  C   C348      1.0  0.98002  0.73124  0.34108  1.0000
  H   H172      1.0  0.95959  0.69315  0.33573  1.0000
  H   H173      1.0  0.97567  0.74334  0.34556  1.0000
  H   H174      1.0  0.02278  0.70755  0.31993  1.0000
  C   C349      1.0  0.50122  0.77748  0.34401  1.0000
  C   C350      1.0  0.50717  0.79415  0.35117  1.0000
  C   C351      1.0  0.49201  0.80679  0.34880  1.0000
  C   C352      1.0  0.47066  0.80251  0.34120  1.0000
  C   C353      1.0  0.46447  0.78587  0.33493  1.0000
  C   C354      1.0  0.47989  0.77345  0.33545  1.0000
  H   H175      1.0  0.45954  0.81157  0.34043  1.0000
  H   H176      1.0  0.47552  0.76135  0.33106  1.0000
  H   H177      1.0  0.52269  0.79710  0.35634  1.0000
  C   C355      1.0  0.50356  0.22718  0.34402  1.0000
  C   C356      1.0  0.49765  0.21052  0.35133  1.0000
  C   C357      1.0  0.51283  0.19789  0.34908  1.0000
  C   C358      1.0  0.53417  0.20220  0.34143  1.0000
  C   C359      1.0  0.54033  0.21884  0.33499  1.0000
  C   C360      1.0  0.52489  0.23124  0.33544  1.0000
  H   H178      1.0  0.54532  0.19315  0.34077  1.0000
  H   H179      1.0  0.52923  0.24334  0.33094  1.0000
  H   H180      1.0  0.48213  0.20754  0.35655  1.0000
  C   C361      1.0  0.53433  0.96600  0.34447  1.0000
  C   C362      1.0  0.50823  0.99437  0.34901  1.0000
  C   C363      1.0  0.51993  0.98979  0.42663  1.0000
  C   C364      1.0  0.53285  0.97562  0.42288  1.0000
  H   H181      1.0  0.54086  0.97193  0.47889  1.0000
  C   C365      1.0  0.49467  0.00847  0.34252  1.0000
  C   C366      1.0  0.47046  0.03816  0.33980  1.0000
  C   C367      1.0  0.48887  0.03640  0.39125  1.0000
  N   N37       1.0  0.49982  0.02213  0.39034  1.0000
  H   H182      1.0  0.49409  0.04564  0.43176  1.0000
  C   C368      1.0  0.51780  0.99790  0.50760  1.0000
  O   O73       1.0  0.53353  0.00285  0.54590  1.0000
  O   O74       1.0  0.50182  0.99501  0.55142  1.0000
  H   H183      1.0  0.49953  0.99875  0.60625  1.0000
  C   C369      1.0  0.98239  0.47104  0.40672  1.0000
  N   N38       1.0  0.99446  0.48470  0.40147  1.0000
  C   C370      1.0  0.02853  0.50950  0.38823  1.0000
  C   C371      1.0  0.04031  0.52428  0.38821  1.0000
  H   H184      1.0  0.05340  0.52497  0.42753  1.0000
  H   H185      1.0  0.98203  0.46457  0.46538  1.0000
  C   C372      1.0  0.03608  0.49610  0.43618  1.0000
  O   O75       1.0  0.03899  0.49770  0.51665  1.0000
  O   O76       1.0  0.04665  0.48529  0.39964  1.0000
  H   H186      1.0  0.04700  0.48345  0.34117  1.0000
  C   C373      1.0  0.30203  0.06938  0.39991  1.0000
  N   N39       1.0  0.32300  0.06717  0.39393  1.0000
  C   C374      1.0  0.36732  0.05586  0.38088  1.0000
  C   C375      1.0  0.38951  0.05571  0.38258  1.0000
  H   H187      1.0  0.39703  0.04740  0.42281  1.0000
  H   H188      1.0  0.29480  0.06748  0.46006  1.0000
  C   C376      1.0  0.35642  0.04402  0.42911  1.0000
  O   O77       1.0  0.35972  0.04282  0.50951  1.0000
  O   O78       1.0  0.34955  0.03150  0.39269  1.0000
  H   H189      1.0  0.34763  0.03034  0.33425  1.0000
  C   C377      1.0  0.70289  0.93582  0.40049  1.0000
  N   N40       1.0  0.68192  0.93803  0.39467  1.0000
  C   C378      1.0  0.63750  0.94919  0.38241  1.0000
  C   C379      1.0  0.61530  0.94928  0.38430  1.0000
  H   H190      1.0  0.60776  0.95753  0.42484  1.0000
  H   H191      1.0  0.71015  0.93773  0.46057  1.0000
  C   C380      1.0  0.64837  0.96101  0.43093  1.0000
  O   O79       1.0  0.64509  0.96213  0.51139  1.0000
  O   O80       1.0  0.65517  0.97359  0.39484  1.0000
  H   H192      1.0  0.65706  0.97481  0.33642  1.0000
  C   C381      1.0  0.21411  0.57505  0.35154  1.0000
  C   C382      1.0  0.17026  0.56965  0.35779  1.0000
  C   C383      1.0  0.18098  0.57526  0.43594  1.0000
  C   C384      1.0  0.20284  0.57795  0.43121  1.0000
  H   H193      1.0  0.21076  0.58205  0.48662  1.0000
  C   C385      1.0  0.14801  0.56755  0.35097  1.0000
  C   C386      1.0  0.10334  0.56700  0.34426  1.0000
  C   C387      1.0  0.11463  0.57826  0.39763  1.0000
  N   N41       1.0  0.13578  0.57812  0.39824  1.0000
  H   H194      1.0  0.10719  0.58666  0.43725  1.0000
  C   C388      1.0  0.17099  0.57741  0.51734  1.0000
  O   O81       1.0  0.17279  0.59057  0.55664  1.0000
  O   O82       1.0  0.16625  0.56489  0.55954  1.0000
  H   H195      1.0  0.16091  0.56496  0.61427  1.0000
  C   C389      1.0  0.79082  0.43010  0.35095  1.0000
  C   C390      1.0  0.83468  0.43552  0.35692  1.0000
  C   C391      1.0  0.82399  0.42989  0.43509  1.0000
  C   C392      1.0  0.80213  0.42718  0.43051  1.0000
  H   H196      1.0  0.79424  0.42305  0.48592  1.0000
  C   C393      1.0  0.85694  0.43760  0.34989  1.0000
  C   C394      1.0  0.90163  0.43801  0.34282  1.0000
  C   C395      1.0  0.89029  0.42686  0.39673  1.0000
  N   N42       1.0  0.86915  0.42706  0.39744  1.0000
  H   H197      1.0  0.89770  0.41850  0.43668  1.0000
  C   C396      1.0  0.83401  0.42769  0.51641  1.0000
  O   O83       1.0  0.83228  0.41449  0.55534  1.0000
  O   O84       1.0  0.83869  0.44019  0.55893  1.0000
  H   H198      1.0  0.84404  0.44009  0.61363  1.0000
  C   C397      1.0  0.50659  0.18117  0.35432  1.0000
  C   C398      1.0  0.49304  0.14793  0.36051  1.0000
  C   C399      1.0  0.49071  0.15816  0.43760  1.0000
  C   C400      1.0  0.49746  0.17474  0.43286  1.0000
  H   H199      1.0  0.49607  0.18221  0.48787  1.0000
  C   C401      1.0  0.48574  0.13126  0.35369  1.0000
  C   C402      1.0  0.46692  0.09939  0.34713  1.0000
  C   C403      1.0  0.45877  0.11237  0.39944  1.0000
  N   N43       1.0  0.46815  0.12727  0.39999  1.0000
  H   H200      1.0  0.44581  0.11081  0.43845  1.0000
  C   C404      1.0  0.48331  0.15224  0.51854  1.0000
  O   O85       1.0  0.46891  0.15945  0.55578  1.0000
  O   O86       1.0  0.49529  0.14355  0.56289  1.0000
  H   H201      1.0  0.49255  0.13995  0.61763  1.0000
  C   C405      1.0  0.49829  0.82350  0.35380  1.0000
  C   C406      1.0  0.51194  0.85672  0.35949  1.0000
  C   C407      1.0  0.51427  0.84651  0.43670  1.0000
  C   C408      1.0  0.50746  0.82995  0.43222  1.0000
  H   H202      1.0  0.50885  0.82250  0.48732  1.0000
  C   C409      1.0  0.51927  0.87336  0.35245  1.0000
  C   C410      1.0  0.53809  0.90522  0.34580  1.0000
  C   C411      1.0  0.54636  0.89220  0.39745  1.0000
  N   N44       1.0  0.53696  0.87731  0.39813  1.0000
  H   H203      1.0  0.55938  0.89373  0.43612  1.0000
  C   C412      1.0  0.52170  0.85247  0.51751  1.0000
  O   O87       1.0  0.53605  0.84522  0.55495  1.0000
  O   O88       1.0  0.50978  0.86125  0.56166  1.0000
  H   H204      1.0  0.51255  0.86488  0.61631  1.0000
  C   C413      1.0  0.99611  0.67052  0.39593  1.0000
  N   N45       1.0  0.00308  0.65482  0.39012  1.0000
  C   C414      1.0  0.01016  0.61871  0.37714  1.0000
  C   C415      1.0  0.01966  0.60295  0.37886  1.0000
  H   H205      1.0  0.01330  0.59396  0.41838  1.0000
  H   H206      1.0  0.98990  0.67454  0.45509  1.0000
  C   C416      1.0  0.99168  0.62114  0.42431  1.0000
  O   O89       1.0  0.99153  0.61830  0.50473  1.0000
  O   O90       1.0  0.97447  0.62037  0.38693  1.0000
  H   H207      1.0  0.97248  0.62120  0.32837  1.0000
  C   C417      1.0  0.00883  0.33413  0.39654  1.0000
  N   N46       1.0  0.00182  0.34982  0.39098  1.0000
  C   C418      1.0  0.99475  0.38595  0.37782  1.0000
  C   C419      1.0  0.98524  0.40171  0.37955  1.0000
  H   H208      1.0  0.99171  0.41074  0.41851  1.0000
  H   H209      1.0  0.01507  0.33010  0.45560  1.0000
  C   C420      1.0  0.01334  0.38355  0.42424  1.0000
  O   O91       1.0  0.01367  0.38645  0.50458  1.0000
  O   O92       1.0  0.03046  0.38429  0.38610  1.0000
  H   H210      1.0  0.03231  0.38342  0.32749  1.0000
  C   C421      1.0  0.44913  0.48913  0.34369  1.0000
  C   C422      1.0  0.49110  0.50055  0.34630  1.0000
  C   C423      1.0  0.48213  0.49371  0.42551  1.0000
  C   C424      1.0  0.46116  0.48805  0.42270  1.0000
  H   H211      1.0  0.45433  0.48343  0.47951  1.0000
  C   C425      1.0  0.51213  0.50662  0.33877  1.0000
  C   C426      1.0  0.55508  0.51643  0.33499  1.0000
  C   C427      1.0  0.54783  0.50309  0.38704  1.0000
  N   N47       1.0  0.52733  0.49890  0.38678  1.0000
  H   H212      1.0  0.55767  0.49665  0.42788  1.0000
  C   C428      1.0  0.49261  0.49352  0.50659  1.0000
  O   O93       1.0  0.49400  0.48053  0.54778  1.0000
  O   O94       1.0  0.49380  0.50669  0.54755  1.0000
  H   H213      1.0  0.49903  0.50771  0.60219  1.0000
  C   C429      1.0  0.04619  0.99595  0.40913  1.0000
  N   N48       1.0  0.02609  0.00112  0.40472  1.0000
  C   C430      1.0  0.98642  0.01999  0.39309  1.0000
  C   C431      1.0  0.96507  0.02466  0.39363  1.0000
  H   H214      1.0  0.96055  0.03430  0.43331  1.0000
  H   H215      1.0  0.05409  0.99698  0.46839  1.0000
  C   C432      1.0  0.00067  0.02942  0.44110  1.0000
  O   O95       1.0  0.99798  0.03108  0.52168  1.0000
  O   O96       1.0  0.01083  0.04049  0.40474  1.0000
  H   H216      1.0  0.01291  0.04135  0.34624  1.0000
  C   C433      1.0  0.39022  0.43568  0.41056  1.0000
  N   N49       1.0  0.38661  0.41929  0.40529  1.0000
  C   C434      1.0  0.36946  0.38543  0.39319  1.0000
  C   C435      1.0  0.36707  0.36809  0.39375  1.0000
  H   H217      1.0  0.35577  0.36302  0.43374  1.0000
  H   H218      1.0  0.38745  0.44162  0.46971  1.0000
  C   C436      1.0  0.35535  0.39495  0.44143  1.0000
  O   O97       1.0  0.35369  0.39253  0.52195  1.0000
  O   O98       1.0  0.33986  0.40113  0.40518  1.0000
  H   H219      1.0  0.33846  0.40266  0.34672  1.0000
  C   C437      1.0  0.61570  0.56922  0.40772  1.0000
  N   N50       1.0  0.61926  0.58562  0.40297  1.0000
  C   C438      1.0  0.63606  0.61960  0.39237  1.0000
  C   C439      1.0  0.63835  0.63695  0.39345  1.0000
  H   H220      1.0  0.64960  0.64202  0.43360  1.0000
  H   H221      1.0  0.61856  0.56321  0.46658  1.0000
  C   C440      1.0  0.65021  0.61010  0.44046  1.0000
  O   O99       1.0  0.65177  0.61242  0.52110  1.0000
  O   O100      1.0  0.66579  0.60406  0.40424  1.0000
  H   H222      1.0  0.66726  0.60261  0.34575  1.0000
  C   C441      1.0  0.10677  0.94414  0.34088  1.0000
  C   C442      1.0  0.11526  0.90984  0.34546  1.0000
  C   C443      1.0  0.10731  0.91786  0.42342  1.0000
  C   C444      1.0  0.10311  0.93497  0.41957  1.0000
  H   H223      1.0  0.09770  0.94096  0.47540  1.0000
  C   C445      1.0  0.11969  0.89255  0.33855  1.0000
  C   C446      1.0  0.12502  0.85759  0.33481  1.0000
  C   C447      1.0  0.10955  0.86542  0.38722  1.0000
  N   N51       1.0  0.10759  0.88200  0.38670  1.0000
  H   H224      1.0  0.09987  0.85886  0.42820  1.0000
  C   C448      1.0  0.10489  0.90981  0.50442  1.0000
  O   O101      1.0  0.08797  0.91051  0.54268  1.0000
  O   O102      1.0  0.12093  0.90710  0.54814  1.0000
  H   H225      1.0  0.12100  0.90294  0.60296  1.0000
  C   C449      1.0  0.89736  0.06087  0.34360  1.0000
  C   C450      1.0  0.88887  0.09518  0.34723  1.0000
  C   C451      1.0  0.89701  0.08726  0.42514  1.0000
  C   C452      1.0  0.90123  0.07015  0.42172  1.0000
  H   H226      1.0  0.90685  0.06425  0.47745  1.0000
  C   C453      1.0  0.88453  0.11248  0.33969  1.0000
  C   C454      1.0  0.87942  0.14745  0.33489  1.0000
  C   C455      1.0  0.89485  0.13963  0.38750  1.0000
  N   N52       1.0  0.89669  0.12304  0.38748  1.0000
  H   H227      1.0  0.90457  0.14619  0.42834  1.0000
  C   C456      1.0  0.89964  0.09541  0.50573  1.0000
  O   O103      1.0  0.91667  0.09478  0.54316  1.0000
  O   O104      1.0  0.88372  0.09818  0.55012  1.0000
  H   H228      1.0  0.88380  0.10241  0.60478  1.0000
  C   C457      1.0  0.28859  0.55890  0.34253  1.0000
  C   C458      1.0  0.32261  0.53639  0.34714  1.0000
  C   C459      1.0  0.30982  0.53852  0.42467  1.0000
  C   C460      1.0  0.29292  0.54980  0.42089  1.0000
  H   H229      1.0  0.28408  0.55192  0.47703  1.0000
  C   C461      1.0  0.34030  0.52553  0.34100  1.0000
  C   C462      1.0  0.37348  0.50191  0.33882  1.0000
  C   C463      1.0  0.35477  0.49951  0.38744  1.0000
  N   N53       1.0  0.33948  0.51105  0.38656  1.0000
  H   H230      1.0  0.35257  0.48929  0.42603  1.0000
  C   C464      1.0  0.31447  0.53107  0.50560  1.0000
  O   O105      1.0  0.30073  0.52337  0.54447  1.0000
  O   O106      1.0  0.32914  0.53693  0.54901  1.0000
  H   H231      1.0  0.33258  0.53376  0.60381  1.0000
  C   C465      1.0  0.71626  0.44610  0.34312  1.0000
  C   C466      1.0  0.68203  0.46841  0.34863  1.0000
  C   C467      1.0  0.69489  0.46629  0.42595  1.0000
  C   C468      1.0  0.71188  0.45510  0.42175  1.0000
  H   H232      1.0  0.72076  0.45298  0.47776  1.0000
  C   C469      1.0  0.66429  0.47924  0.34277  1.0000
  C   C470      1.0  0.63114  0.50290  0.34035  1.0000
  C   C471      1.0  0.64972  0.50518  0.39005  1.0000
  N   N54       1.0  0.66500  0.49364  0.38912  1.0000
  H   H233      1.0  0.65187  0.51534  0.42909  1.0000
  C   C472      1.0  0.69024  0.47366  0.50711  1.0000
  O   O107      1.0  0.70394  0.48144  0.54582  1.0000
  O   O108      1.0  0.67567  0.46769  0.55068  1.0000
  H   H234      1.0  0.67226  0.47081  0.60560  1.0000
  C   C473      1.0  0.20330  0.05627  0.40869  1.0000
  N   N55       1.0  0.18736  0.04534  0.40339  1.0000
  C   C474      1.0  0.14628  0.02860  0.38714  1.0000
  C   C475      1.0  0.13002  0.01676  0.38689  1.0000
  H   H235      1.0  0.11687  0.01899  0.42409  1.0000
  H   H236      1.0  0.20554  0.06255  0.46719  1.0000
  C   C476      1.0  0.14311  0.04334  0.43230  1.0000
  O   O109      1.0  0.13914  0.04284  0.51237  1.0000
  O   O110      1.0  0.13688  0.05576  0.39280  1.0000
  H   H237      1.0  0.13761  0.05729  0.33413  1.0000
  C   C477      1.0  0.80175  0.94870  0.40782  1.0000
  N   N56       1.0  0.81776  0.95955  0.40212  1.0000
  C   C478      1.0  0.85884  0.97627  0.38612  1.0000
  C   C479      1.0  0.87509  0.98813  0.38603  1.0000
  H   H238      1.0  0.88813  0.98599  0.42412  1.0000
  H   H239      1.0  0.79949  0.94247  0.46648  1.0000
  C   C480      1.0  0.86193  0.96161  0.43224  1.0000
  O   O111      1.0  0.86574  0.96226  0.51241  1.0000
  O   O112      1.0  0.86820  0.94911  0.39365  1.0000
  H   H240      1.0  0.86758  0.94747  0.33504  1.0000
  C   C481      1.0  0.23641  0.11714  0.34696  1.0000
  C   C482      1.0  0.22568  0.15094  0.35356  1.0000
  C   C483      1.0  0.23353  0.14300  0.43195  1.0000
  C   C484      1.0  0.23884  0.12611  0.42712  1.0000
  H   H241      1.0  0.24425  0.12014  0.48302  1.0000
  C   C485      1.0  0.22039  0.16804  0.34738  1.0000
  C   C486      1.0  0.21367  0.20275  0.34384  1.0000
  C   C487      1.0  0.22935  0.19533  0.39679  1.0000
  N   N57       1.0  0.23200  0.17883  0.39608  1.0000
  H   H242      1.0  0.23874  0.20213  0.43785  1.0000
  C   C488      1.0  0.23488  0.15092  0.51383  1.0000
  O   O113      1.0  0.25148  0.15062  0.55479  1.0000
  O   O114      1.0  0.21837  0.15327  0.55479  1.0000
  H   H243      1.0  0.21765  0.15735  0.60971  1.0000
  C   C489      1.0  0.76838  0.88791  0.34697  1.0000
  C   C490      1.0  0.77925  0.85413  0.35373  1.0000
  C   C491      1.0  0.77129  0.86205  0.43199  1.0000
  C   C492      1.0  0.76591  0.87893  0.42708  1.0000
  H   H244      1.0  0.76044  0.88488  0.48291  1.0000
  C   C493      1.0  0.78463  0.83704  0.34762  1.0000
  C   C494      1.0  0.79148  0.80234  0.34418  1.0000
  C   C495      1.0  0.77578  0.80974  0.39713  1.0000
  N   N58       1.0  0.77306  0.82623  0.39635  1.0000
  H   H245      1.0  0.76641  0.80292  0.43819  1.0000
  C   C496      1.0  0.76990  0.85413  0.51386  1.0000
  O   O115      1.0  0.75326  0.85438  0.55455  1.0000
  O   O116      1.0  0.78639  0.85183  0.55509  1.0000
  H   H246      1.0  0.78708  0.84776  0.61002  1.0000
  C   C497      1.0  0.27632  0.62551  0.40489  1.0000
  N   N59       1.0  0.28104  0.64169  0.39862  1.0000
  C   C498      1.0  0.30050  0.67474  0.38464  1.0000
  C   C499      1.0  0.30362  0.69199  0.38501  1.0000
  H   H247      1.0  0.31504  0.69682  0.42522  1.0000
  H   H248      1.0  0.27817  0.61967  0.46502  1.0000
  C   C500      1.0  0.31406  0.66485  0.43358  1.0000
  O   O117      1.0  0.31582  0.66736  0.51398  1.0000
  O   O118      1.0  0.32919  0.65805  0.39784  1.0000
  H   H249      1.0  0.33054  0.65637  0.33949  1.0000
  C   C501      1.0  0.72858  0.37957  0.40474  1.0000
  N   N60       1.0  0.72380  0.36339  0.39842  1.0000
  C   C502      1.0  0.70426  0.33038  0.38437  1.0000
  C   C503      1.0  0.70108  0.31313  0.38468  1.0000
  H   H250      1.0  0.68963  0.30832  0.42489  1.0000
  H   H251      1.0  0.72667  0.38541  0.46481  1.0000
  C   C504      1.0  0.69074  0.34029  0.43336  1.0000
  O   O119      1.0  0.68898  0.33778  0.51376  1.0000
  O   O120      1.0  0.67563  0.34713  0.39768  1.0000
  H   H252      1.0  0.67428  0.34882  0.33934  1.0000
  C   C505      1.0  0.24216  0.25911  0.35204  1.0000
  C   C506      1.0  0.27666  0.28085  0.36284  1.0000
  C   C507      1.0  0.27052  0.27167  0.44003  1.0000
  C   C508      1.0  0.25325  0.26085  0.43309  1.0000
  H   H253      1.0  0.24840  0.25434  0.48816  1.0000
  C   C509      1.0  0.29470  0.29127  0.35803  1.0000
  C   C510      1.0  0.33363  0.30826  0.35261  1.0000
  C   C511      1.0  0.33022  0.29441  0.40776  1.0000
  N   N61       1.0  0.31157  0.28665  0.40724  1.0000
  H   H254      1.0  0.34173  0.28982  0.44805  1.0000
  C   C512      1.0  0.27995  0.27369  0.52278  1.0000
  O   O121      1.0  0.28637  0.26155  0.56292  1.0000
  O   O122      1.0  0.27588  0.28641  0.56449  1.0000
  H   H255      1.0  0.28015  0.28842  0.61983  1.0000
  C   C513      1.0  0.76302  0.74600  0.35211  1.0000
  C   C514      1.0  0.72850  0.72428  0.36288  1.0000
  C   C515      1.0  0.73466  0.73344  0.44011  1.0000
  C   C516      1.0  0.75193  0.74425  0.43319  1.0000
  H   H256      1.0  0.75679  0.75075  0.48826  1.0000
  C   C517      1.0  0.71046  0.71387  0.35807  1.0000
  C   C518      1.0  0.67154  0.69687  0.35276  1.0000
  C   C519      1.0  0.67494  0.71073  0.40778  1.0000
  N   N62       1.0  0.69358  0.71850  0.40723  1.0000
  H   H257      1.0  0.66342  0.71532  0.44806  1.0000
  C   C520      1.0  0.72523  0.73141  0.52287  1.0000
  O   O123      1.0  0.71886  0.74354  0.56318  1.0000
  O   O124      1.0  0.72924  0.71866  0.56439  1.0000
  H   H258      1.0  0.72497  0.71663  0.61971  1.0000
  C   C521      1.0  0.25627  0.76860  0.39824  1.0000
  N   N63       1.0  0.23950  0.77864  0.39015  1.0000
  C   C522      1.0  0.20790  0.80534  0.37455  1.0000
  C   C523      1.0  0.18844  0.81370  0.37565  1.0000
  H   H259      1.0  0.18654  0.82364  0.41699  1.0000
  H   H260      1.0  0.26370  0.76777  0.45870  1.0000
  C   C524      1.0  0.22440  0.81151  0.42497  1.0000
  O   O125      1.0  0.22181  0.81366  0.50527  1.0000
  O   O126      1.0  0.23843  0.81982  0.39049  1.0000
  H   H261      1.0  0.24116  0.82019  0.33234  1.0000
  C   C525      1.0  0.74838  0.23653  0.39819  1.0000
  N   N64       1.0  0.76517  0.22650  0.39014  1.0000
  C   C526      1.0  0.79674  0.19980  0.37447  1.0000
  C   C527      1.0  0.81620  0.19143  0.37555  1.0000
  H   H262      1.0  0.81809  0.18148  0.41681  1.0000
  H   H263      1.0  0.74096  0.23737  0.45867  1.0000
  C   C528      1.0  0.78023  0.19361  0.42478  1.0000
  O   O127      1.0  0.78281  0.19146  0.50508  1.0000
  O   O128      1.0  0.76624  0.18529  0.39020  1.0000
  H   H264      1.0  0.76352  0.18492  0.33204  1.0000
  C   C529      1.0  0.48835  0.23977  0.34420  1.0000
  C   C530      1.0  0.45774  0.26480  0.34093  1.0000
  C   C531      1.0  0.46630  0.25970  0.42463  1.0000
  C   C532      1.0  0.48152  0.24703  0.42483  1.0000
  H   H265      1.0  0.48754  0.24289  0.48434  1.0000
  C   C533      1.0  0.44147  0.27669  0.33051  1.0000
  C   C534      1.0  0.40951  0.30093  0.32667  1.0000
  C   C535      1.0  0.42723  0.30238  0.38242  1.0000
  N   N65       1.0  0.44199  0.29042  0.38271  1.0000
  H   H266      1.0  0.42865  0.31185  0.42690  1.0000
  C   C536      1.0  0.45926  0.26587  0.50553  1.0000
  O   O129      1.0  0.47204  0.27167  0.55793  1.0000
  O   O130      1.0  0.44251  0.26045  0.53419  1.0000
  H   H267      1.0  0.43730  0.26283  0.58759  1.0000
  C   C537      1.0  0.51641  0.76489  0.34425  1.0000
  C   C538      1.0  0.54716  0.73997  0.34117  1.0000
  C   C539      1.0  0.53861  0.74508  0.42485  1.0000
  C   C540      1.0  0.52333  0.75770  0.42496  1.0000
  H   H268      1.0  0.51732  0.76187  0.48445  1.0000
  C   C541      1.0  0.56350  0.72814  0.33085  1.0000
  C   C542      1.0  0.59561  0.70403  0.32720  1.0000
  C   C543      1.0  0.57790  0.70252  0.38292  1.0000
  N   N66       1.0  0.56305  0.71442  0.38312  1.0000
  H   H269      1.0  0.57653  0.69304  0.42742  1.0000
  C   C544      1.0  0.54572  0.73898  0.50579  1.0000
  O   O131      1.0  0.53300  0.73318  0.55843  1.0000
  O   O132      1.0  0.56246  0.74447  0.53419  1.0000
  H   H270      1.0  0.56771  0.74213  0.58758  1.0000
  C   C545      1.0  0.02502  0.74562  0.41322  1.0000
  N   N67       1.0  0.03973  0.75756  0.41137  1.0000
  C   C546      1.0  0.08047  0.77488  0.40646  1.0000
  C   C547      1.0  0.09620  0.78709  0.40707  1.0000
  H   H271      1.0  0.10883  0.78563  0.44855  1.0000
  H   H272      1.0  0.02054  0.74083  0.47356  1.0000
  C   C548      1.0  0.08339  0.76077  0.45769  1.0000
  O   O133      1.0  0.08561  0.76233  0.53859  1.0000
  O   O134      1.0  0.09134  0.74827  0.42527  1.0000
  H   H273      1.0  0.09203  0.74607  0.36721  1.0000
  C   C549      1.0  0.98003  0.25903  0.41311  1.0000
  N   N68       1.0  0.96525  0.24714  0.41119  1.0000
  C   C550      1.0  0.92438  0.23001  0.40613  1.0000
  C   C551      1.0  0.90857  0.21786  0.40665  1.0000
  H   H274      1.0  0.89595  0.21936  0.44815  1.0000
  H   H275      1.0  0.98455  0.26378  0.47348  1.0000
  C   C552      1.0  0.92155  0.24412  0.45743  1.0000
  O   O135      1.0  0.91932  0.24256  0.53832  1.0000
  O   O136      1.0  0.91369  0.25667  0.42507  1.0000
  H   H276      1.0  0.91301  0.25888  0.36703  1.0000
  C   C553      1.0  0.06178  0.28143  0.34691  1.0000
  C   C554      1.0  0.10384  0.27057  0.35108  1.0000
  C   C555      1.0  0.09123  0.26916  0.42958  1.0000
  C   C556      1.0  0.07020  0.27458  0.42585  1.0000
  H   H277      1.0  0.06089  0.27371  0.48158  1.0000
  C   C557      1.0  0.12500  0.26495  0.34352  1.0000
  C   C558      1.0  0.16594  0.25109  0.33838  1.0000
  C   C559      1.0  0.14956  0.24414  0.38923  1.0000
  N   N69       1.0  0.13038  0.25115  0.38957  1.0000
  H   H278      1.0  0.15192  0.23406  0.42869  1.0000
  C   C560      1.0  0.09911  0.26361  0.51046  1.0000
  O   O137      1.0  0.08998  0.25253  0.54996  1.0000
  O   O138      1.0  0.11048  0.27314  0.55266  1.0000
  H   H279      1.0  0.11531  0.27117  0.60722  1.0000
  C   C561      1.0  0.94324  0.72332  0.34685  1.0000
  C   C562      1.0  0.90124  0.73435  0.35085  1.0000
  C   C563      1.0  0.91385  0.73571  0.42938  1.0000
  C   C564      1.0  0.93485  0.73022  0.42573  1.0000
  H   H280      1.0  0.94415  0.73107  0.48148  1.0000
  C   C565      1.0  0.88011  0.74004  0.34320  1.0000
  C   C566      1.0  0.83922  0.75399  0.33806  1.0000
  C   C567      1.0  0.85563  0.76090  0.38888  1.0000
  N   N70       1.0  0.87479  0.75385  0.38926  1.0000
  H   H281      1.0  0.85330  0.77099  0.42838  1.0000
  C   C568      1.0  0.90599  0.74131  0.51020  1.0000
  O   O139      1.0  0.91518  0.75237  0.54966  1.0000
  O   O140      1.0  0.89456  0.73183  0.55245  1.0000
  H   H282      1.0  0.88974  0.73383  0.60698  1.0000
  C   C569      1.0  0.43001  0.78264  0.40498  1.0000
  N   N71       1.0  0.41009  0.77711  0.39997  1.0000
  C   C570      1.0  0.36420  0.77238  0.38716  1.0000
  C   C571      1.0  0.34395  0.76533  0.38833  1.0000
  H   H283      1.0  0.33260  0.77070  0.42687  1.0000
  H   H284      1.0  0.43541  0.78714  0.46458  1.0000
  C   C572      1.0  0.36761  0.78698  0.43341  1.0000
  O   O141      1.0  0.36395  0.78731  0.51377  1.0000
  O   O142      1.0  0.36691  0.80044  0.39514  1.0000
  H   H285      1.0  0.36802  0.80186  0.33649  1.0000
  C   C573      1.0  0.57477  0.22215  0.40508  1.0000
  N   N72       1.0  0.59466  0.22776  0.40015  1.0000
  C   C574      1.0  0.64052  0.23264  0.38748  1.0000
  C   C575      1.0  0.66074  0.23974  0.38866  1.0000
  H   H286      1.0  0.67212  0.23440  0.42718  1.0000
  H   H287      1.0  0.56939  0.21764  0.46465  1.0000
  C   C576      1.0  0.63718  0.21803  0.43369  1.0000
  O   O143      1.0  0.64082  0.21770  0.51406  1.0000
  O   O144      1.0  0.63797  0.20458  0.39540  1.0000
  H   H288      1.0  0.63688  0.20315  0.33675  1.0000
