data_image0
_chemical_formula_structural       C2H2CN2CH2C16H16C16H16C16H16C3H2C2H2NC2H2C2H2NC3H2C2H2NC3H2C2H2NC2H2C2H2NC3H2C2H2NC4NC8NC36H22C4H4C3NC3NC5NC5NC36H26C4H4C3NC3NC5NC5NC36H26C4H4C7H2N2O4NC8H2N2O4NC7H2N2O4NC7H2N2O4NC8H2N2O4NC7H2N2O4N
_chemical_formula_sum              "C288 H174 N36 O24"
_cell_length_a       75.2441
_cell_length_b       75.244
_cell_length_c       14.9684
_cell_angle_alpha    89.7432
_cell_angle_beta     90.2568
_cell_angle_gamma    120

_space_group_name_H-M_alt    "P 1"
_space_group_IT_number       1

loop_
  _space_group_symop_operation_xyz
  'x, y, z'

loop_
  _atom_site_type_symbol
  _atom_site_label
  _atom_site_symmetry_multiplicity
  _atom_site_fract_x
  _atom_site_fract_y
  _atom_site_fract_z
  _atom_site_occupancy
  C   C1        1.0  0.01437  0.58806  0.34895  1.0000
  C   C2        1.0  0.01224  0.51046  0.35000  1.0000
  H   H1        1.0  0.01306  0.61629  0.34901  1.0000
  H   H2        1.0  0.00929  0.48019  0.34891  1.0000
  C   C3        1.0  0.02159  0.60916  0.34862  1.0000
  N   N1        1.0  0.03141  0.58622  0.34866  1.0000
  N   N2        1.0  0.02983  0.52888  0.34953  1.0000
  C   C4        1.0  0.01846  0.49579  0.34891  1.0000
  H   H3        1.0  0.03105  0.57329  0.34970  1.0000
  H   H4        1.0  0.03019  0.54180  0.35149  1.0000
  C   C5        1.0  0.11025  0.66219  0.28322  1.0000
  C   C6        1.0  0.09407  0.64174  0.27772  1.0000
  C   C7        1.0  0.13653  0.70808  0.31955  1.0000
  C   C8        1.0  0.15333  0.72820  0.32617  1.0000
  C   C9        1.0  0.10749  0.52913  0.27851  1.0000
  C   C10       1.0  0.09243  0.53500  0.27455  1.0000
  C   C11       1.0  0.16316  0.52472  0.32618  1.0000
  C   C12       1.0  0.14749  0.52969  0.31812  1.0000
  C   C13       1.0  0.96636  0.47371  0.27867  1.0000
  C   C14       1.0  0.95037  0.45318  0.28447  1.0000
  C   C15       1.0  0.90847  0.38683  0.32482  1.0000
  C   C16       1.0  0.92500  0.40709  0.31780  1.0000
  C   C17       1.0  0.96868  0.58011  0.27442  1.0000
  C   C18       1.0  0.95346  0.58574  0.27837  1.0000
  C   C19       1.0  0.91317  0.58444  0.31779  1.0000
  C   C20       1.0  0.89728  0.58907  0.32583  1.0000
  H   H5        1.0  0.88381  0.58008  0.29239  1.0000
  H   H6        1.0  0.91063  0.57219  0.27920  1.0000
  H   H7        1.0  0.94687  0.58668  0.21992  1.0000
  H   H8        1.0  0.97258  0.57684  0.21374  1.0000
  H   H9        1.0  0.97087  0.48047  0.21714  1.0000
  H   H10       1.0  0.94349  0.44564  0.22659  1.0000
  H   H11       1.0  0.08853  0.53842  0.21388  1.0000
  H   H12       1.0  0.11398  0.52821  0.22007  1.0000
  H   H13       1.0  0.15020  0.54209  0.27982  1.0000
  H   H14       1.0  0.17665  0.53362  0.29294  1.0000
  H   H15       1.0  0.08884  0.63530  0.21619  1.0000
  H   H16       1.0  0.11653  0.66999  0.22507  1.0000
  H   H17       1.0  0.15336  0.73949  0.28769  1.0000
  H   H18       1.0  0.12481  0.70543  0.27678  1.0000
  H   H19       1.0  0.93622  0.41016  0.27189  1.0000
  H   H20       1.0  0.90814  0.37587  0.28345  1.0000
  C   C21       1.0  0.42448  0.52973  0.28733  1.0000
  C   C22       1.0  0.44492  0.53400  0.28178  1.0000
  C   C23       1.0  0.37859  0.51001  0.32372  1.0000
  C   C24       1.0  0.35847  0.50667  0.33028  1.0000
  C   C25       1.0  0.55753  0.66006  0.28233  1.0000
  C   C26       1.0  0.55167  0.63914  0.27837  1.0000
  C   C27       1.0  0.56196  0.72007  0.32994  1.0000
  C   C28       1.0  0.55697  0.69944  0.32199  1.0000
  C   C29       1.0  0.61298  0.57437  0.28278  1.0000
  C   C30       1.0  0.63351  0.57891  0.28861  1.0000
  C   C31       1.0  0.69985  0.60330  0.32880  1.0000
  C   C32       1.0  0.67959  0.59959  0.32189  1.0000
  C   C33       1.0  0.50659  0.47029  0.27819  1.0000
  C   C34       1.0  0.50095  0.44943  0.28213  1.0000
  C   C35       1.0  0.50225  0.41036  0.32155  1.0000
  C   C36       1.0  0.49762  0.38983  0.32961  1.0000
  H   H21       1.0  0.50660  0.38541  0.29614  1.0000
  H   H22       1.0  0.51450  0.42014  0.28295  1.0000
  H   H23       1.0  0.50002  0.44201  0.22367  1.0000
  H   H24       1.0  0.50985  0.47757  0.21750  1.0000
  H   H25       1.0  0.60622  0.57222  0.22124  1.0000
  H   H26       1.0  0.64105  0.57967  0.23074  1.0000
  H   H27       1.0  0.54826  0.63194  0.21769  1.0000
  H   H28       1.0  0.55847  0.66759  0.22388  1.0000
  H   H29       1.0  0.54459  0.68983  0.28354  1.0000
  H   H30       1.0  0.55308  0.72472  0.29661  1.0000
  H   H31       1.0  0.45135  0.53533  0.22023  1.0000
  H   H32       1.0  0.41666  0.52828  0.22920  1.0000
  H   H33       1.0  0.34718  0.49547  0.29175  1.0000
  H   H34       1.0  0.38125  0.50103  0.28092  1.0000
  H   H35       1.0  0.67651  0.60780  0.27595  1.0000
  H   H36       1.0  0.71080  0.61400  0.28737  1.0000
  C   C37       1.0  0.55697  0.97646  0.29107  1.0000
  C   C38       1.0  0.55271  0.99264  0.28550  1.0000
  C   C39       1.0  0.57668  0.95022  0.32746  1.0000
  C   C40       1.0  0.58002  0.93342  0.33406  1.0000
  C   C41       1.0  0.42670  0.97925  0.28447  1.0000
  C   C42       1.0  0.44762  0.99433  0.28103  1.0000
  C   C43       1.0  0.36666  0.92352  0.32989  1.0000
  C   C44       1.0  0.38730  0.93919  0.32259  1.0000
  C   C45       1.0  0.51227  0.12028  0.28651  1.0000
  C   C46       1.0  0.50775  0.13628  0.29238  1.0000
  C   C47       1.0  0.48336  0.17815  0.33263  1.0000
  C   C48       1.0  0.48708  0.16162  0.32571  1.0000
  C   C49       1.0  0.61631  0.11792  0.28074  1.0000
  C   C50       1.0  0.63717  0.13316  0.28420  1.0000
  C   C51       1.0  0.67625  0.17352  0.32221  1.0000
  C   C52       1.0  0.69679  0.18942  0.32964  1.0000
  H   H37       1.0  0.70119  0.20281  0.29561  1.0000
  H   H38       1.0  0.66643  0.17598  0.28359  1.0000
  H   H39       1.0  0.64454  0.13967  0.22553  1.0000
  H   H40       1.0  0.60898  0.11392  0.22018  1.0000
  H   H41       1.0  0.51442  0.11579  0.22496  1.0000
  H   H42       1.0  0.50697  0.14315  0.23451  1.0000
  H   H43       1.0  0.45489  0.99833  0.22050  1.0000
  H   H44       1.0  0.41924  0.97286  0.22579  1.0000
  H   H45       1.0  0.39696  0.93654  0.28423  1.0000
  H   H46       1.0  0.36205  0.91009  0.29616  1.0000
  H   H47       1.0  0.55141  0.99787  0.22395  1.0000
  H   H48       1.0  0.55845  0.97021  0.23294  1.0000
  H   H49       1.0  0.59123  0.93341  0.29558  1.0000
  H   H50       1.0  0.58568  0.96194  0.28475  1.0000
  H   H51       1.0  0.47886  0.15041  0.27977  1.0000
  H   H52       1.0  0.47268  0.17850  0.29118  1.0000
  C   C53       1.0  0.30299  0.50817  0.33385  1.0000
  C   C54       1.0  0.28038  0.52094  0.28438  1.0000
  C   C55       1.0  0.29958  0.52203  0.28320  1.0000
  H   H53       1.0  0.27867  0.53173  0.24950  1.0000
  H   H54       1.0  0.31128  0.53347  0.24723  1.0000
  C   C56       1.0  0.21638  0.50601  0.26122  1.0000
  C   C57       1.0  0.23461  0.50512  0.25979  1.0000
  H   H55       1.0  0.20957  0.50607  0.20195  1.0000
  H   H56       1.0  0.24046  0.50441  0.19915  1.0000
  N   N3        1.0  0.32177  0.51063  0.33280  1.0000
  C   C58       1.0  0.56575  0.84114  0.28812  1.0000
  C   C59       1.0  0.56466  0.85926  0.28691  1.0000
  H   H57       1.0  0.55496  0.82870  0.25324  1.0000
  H   H58       1.0  0.55321  0.85958  0.25099  1.0000
  C   C60       1.0  0.58069  0.79213  0.26494  1.0000
  C   C61       1.0  0.58157  0.81123  0.26351  1.0000
  H   H59       1.0  0.58063  0.78535  0.20568  1.0000
  H   H60       1.0  0.58228  0.81791  0.20288  1.0000
  N   N4        1.0  0.57604  0.89275  0.33657  1.0000
  C   C62       1.0  0.21024  0.78376  0.33062  1.0000
  C   C63       1.0  0.24563  0.80646  0.28248  1.0000
  C   C64       1.0  0.22752  0.78726  0.28051  1.0000
  H   H61       1.0  0.25814  0.80822  0.24811  1.0000
  H   H62       1.0  0.22728  0.77559  0.24454  1.0000
  C   C65       1.0  0.29473  0.87050  0.26204  1.0000
  C   C66       1.0  0.27561  0.85228  0.25963  1.0000
  H   H63       1.0  0.30164  0.87742  0.20314  1.0000
  H   H64       1.0  0.26907  0.84654  0.19866  1.0000
  N   N5        1.0  0.19395  0.76497  0.32912  1.0000
  C   C67       1.0  0.75586  0.60294  0.33607  1.0000
  C   C68       1.0  0.77864  0.59046  0.28702  1.0000
  C   C69       1.0  0.75931  0.58910  0.28623  1.0000
  H   H65       1.0  0.78039  0.57969  0.25276  1.0000
  H   H66       1.0  0.74756  0.57749  0.25112  1.0000
  C   C70       1.0  0.84285  0.60628  0.26190  1.0000
  C   C71       1.0  0.82445  0.60684  0.26070  1.0000
  H   H67       1.0  0.84955  0.60624  0.20254  1.0000
  H   H68       1.0  0.81835  0.60736  0.20013  1.0000
  N   N6        1.0  0.73697  0.60021  0.33521  1.0000
  C   C72       1.0  0.49623  0.26987  0.29080  1.0000
  C   C73       1.0  0.49758  0.25191  0.29000  1.0000
  H   H69       1.0  0.50699  0.28246  0.25654  1.0000
  H   H70       1.0  0.50919  0.25183  0.25490  1.0000
  C   C74       1.0  0.48040  0.31831  0.26569  1.0000
  C   C75       1.0  0.47984  0.29935  0.26449  1.0000
  H   H71       1.0  0.48044  0.32514  0.20632  1.0000
  H   H72       1.0  0.47933  0.29284  0.20391  1.0000
  N   N7        1.0  0.48647  0.21837  0.33897  1.0000
  C   C76       1.0  0.85217  0.33074  0.33291  1.0000
  C   C77       1.0  0.81673  0.30789  0.28519  1.0000
  C   C78       1.0  0.83470  0.32721  0.28360  1.0000
  H   H73       1.0  0.80408  0.30609  0.25141  1.0000
  H   H74       1.0  0.83469  0.33892  0.24851  1.0000
  C   C79       1.0  0.76821  0.24363  0.26276  1.0000
  C   C80       1.0  0.78717  0.26202  0.26058  1.0000
  H   H75       1.0  0.76124  0.23683  0.20375  1.0000
  H   H76       1.0  0.79356  0.26800  0.19968  1.0000
  N   N8        1.0  0.86831  0.34964  0.33161  1.0000
  C   C81       1.0  0.04278  0.61930  0.34925  1.0000
  C   C82       1.0  0.04900  0.60464  0.34947  1.0000
  C   C83       1.0  0.99332  0.57251  0.35011  1.0000
  C   C84       1.0  0.98603  0.55108  0.35089  1.0000
  N   N9        1.0  0.99721  0.54154  0.34936  1.0000
  C   C85       1.0  0.98521  0.52090  0.35190  1.0000
  C   C86       1.0  0.96499  0.51693  0.35500  1.0000
  C   C87       1.0  0.96550  0.53552  0.35435  1.0000
  C   C88       1.0  0.99150  0.50598  0.35189  1.0000
  C   C89       1.0  0.04686  0.52704  0.34919  1.0000
  C   C90       1.0  0.03964  0.50594  0.34824  1.0000
  C   C91       1.0  0.06792  0.54258  0.35017  1.0000
  C   C92       1.0  0.07520  0.56400  0.35062  1.0000
  N   N10       1.0  0.06402  0.57354  0.34916  1.0000
  C   C93       1.0  0.07603  0.59418  0.35119  1.0000
  C   C94       1.0  0.09625  0.59815  0.35373  1.0000
  C   C95       1.0  0.09575  0.57956  0.35348  1.0000
  C   C96       1.0  0.06974  0.60911  0.35120  1.0000
  C   C97       1.0  0.08547  0.63010  0.35608  1.0000
  C   C98       1.0  0.09322  0.63932  0.43990  1.0000
  C   C99       1.0  0.10944  0.65971  0.44508  1.0000
  C   C100      1.0  0.11840  0.67150  0.36694  1.0000
  C   C101      1.0  0.13545  0.69194  0.37266  1.0000
  C   C102      1.0  0.16969  0.73283  0.38599  1.0000
  C   C103      1.0  0.16870  0.71674  0.43881  1.0000
  C   C104      1.0  0.15193  0.69667  0.43203  1.0000
  C   C105      1.0  0.08288  0.53625  0.35335  1.0000
  C   C106      1.0  0.08860  0.53145  0.43598  1.0000
  C   C107      1.0  0.10358  0.52550  0.43961  1.0000
  C   C108      1.0  0.11333  0.52424  0.36105  1.0000
  C   C109      1.0  0.12882  0.51856  0.36554  1.0000
  C   C110      1.0  0.12627  0.50199  0.41985  1.0000
  C   C111      1.0  0.14190  0.49699  0.42779  1.0000
  C   C112      1.0  0.16068  0.50833  0.38153  1.0000
  C   C113      1.0  0.97580  0.48498  0.35686  1.0000
  C   C114      1.0  0.94328  0.44339  0.36835  1.0000
  C   C115      1.0  0.95306  0.45482  0.44625  1.0000
  C   C116      1.0  0.96908  0.47531  0.44075  1.0000
  C   C117      1.0  0.92650  0.42280  0.37460  1.0000
  C   C118      1.0  0.91073  0.41748  0.43818  1.0000
  C   C119      1.0  0.89425  0.39726  0.44537  1.0000
  C   C120      1.0  0.89282  0.38160  0.38879  1.0000
  C   C121      1.0  0.97835  0.57881  0.35327  1.0000
  C   C122      1.0  0.97258  0.58335  0.43592  1.0000
  C   C123      1.0  0.95743  0.58907  0.43953  1.0000
  C   C124      1.0  0.94755  0.59034  0.36094  1.0000
  C   C125      1.0  0.93183  0.59570  0.36545  1.0000
  C   C126      1.0  0.89951  0.60523  0.38155  1.0000
  C   C127      1.0  0.91828  0.61669  0.42808  1.0000
  C   C128      1.0  0.93413  0.61203  0.42009  1.0000
  H   H77       1.0  0.92054  0.62847  0.46936  1.0000
  H   H78       1.0  0.94744  0.62074  0.45498  1.0000
  H   H79       1.0  0.95332  0.59180  0.50082  1.0000
  H   H80       1.0  0.97921  0.58230  0.49410  1.0000
  H   H81       1.0  0.05195  0.63491  0.34998  1.0000
  H   H82       1.0  0.95282  0.53716  0.35677  1.0000
  H   H83       1.0  0.95189  0.50293  0.35772  1.0000
  H   H84       1.0  0.97567  0.48318  0.49841  1.0000
  H   H85       1.0  0.94866  0.44828  0.50819  1.0000
  H   H86       1.0  0.04817  0.49880  0.34775  1.0000
  H   H87       1.0  0.10936  0.61215  0.35588  1.0000
  H   H88       1.0  0.10842  0.57791  0.35560  1.0000
  H   H89       1.0  0.08202  0.53242  0.49412  1.0000
  H   H90       1.0  0.10764  0.52255  0.50086  1.0000
  H   H91       1.0  0.13947  0.48505  0.46882  1.0000
  H   H92       1.0  0.11294  0.49337  0.45451  1.0000
  H   H93       1.0  0.15204  0.68543  0.47041  1.0000
  H   H94       1.0  0.18028  0.71943  0.48259  1.0000
  H   H95       1.0  0.11463  0.66590  0.50700  1.0000
  H   H96       1.0  0.08727  0.63117  0.49766  1.0000
  H   H97       1.0  0.91093  0.42838  0.47944  1.0000
  H   H98       1.0  0.88317  0.39413  0.49224  1.0000
  C   C129      1.0  0.18627  0.75254  0.39562  1.0000
  C   C130      1.0  0.17638  0.50393  0.39551  1.0000
  C   C131      1.0  0.87651  0.36173  0.39861  1.0000
  C   C132      1.0  0.88360  0.60928  0.39556  1.0000
  H   H99       1.0  0.19304  0.75674  0.45530  1.0000
  H   H100      1.0  0.88384  0.61673  0.45077  1.0000
  H   H101      1.0  0.87028  0.35717  0.45899  1.0000
  H   H102      1.0  0.17615  0.49646  0.45098  1.0000
  C   C133      1.0  0.47753  0.49401  0.35256  1.0000
  C   C134      1.0  0.46738  0.50505  0.35327  1.0000
  C   C135      1.0  0.48204  0.52593  0.35343  1.0000
  N   N11       1.0  0.50046  0.52677  0.35253  1.0000
  C   C136      1.0  0.49863  0.50790  0.35278  1.0000
  C   C137      1.0  0.51418  0.50239  0.35388  1.0000
  C   C138      1.0  0.53561  0.51654  0.35465  1.0000
  N   N12       1.0  0.54514  0.53725  0.35324  1.0000
  C   C139      1.0  0.56578  0.54590  0.35581  1.0000
  C   C140      1.0  0.56976  0.52965  0.35878  1.0000
  C   C141      1.0  0.55117  0.51156  0.35813  1.0000
  C   C142      1.0  0.58070  0.56711  0.35595  1.0000
  C   C143      1.0  0.57622  0.58337  0.35412  1.0000
  N   N13       1.0  0.55780  0.58254  0.35355  1.0000
  C   C144      1.0  0.55963  0.60140  0.35320  1.0000
  C   C145      1.0  0.58073  0.61529  0.35244  1.0000
  C   C146      1.0  0.59088  0.60426  0.35318  1.0000
  C   C147      1.0  0.54409  0.60692  0.35399  1.0000
  C   C148      1.0  0.52266  0.59277  0.35445  1.0000
  N   N14       1.0  0.51314  0.57206  0.35308  1.0000
  C   C149      1.0  0.49249  0.56341  0.35510  1.0000
  C   C150      1.0  0.48852  0.57966  0.35754  1.0000
  C   C151      1.0  0.50711  0.59775  0.35723  1.0000
  C   C152      1.0  0.47756  0.54220  0.35518  1.0000
  C   C153      1.0  0.45658  0.53693  0.36011  1.0000
  C   C154      1.0  0.44737  0.53531  0.44395  1.0000
  C   C155      1.0  0.42697  0.53112  0.44918  1.0000
  C   C156      1.0  0.41517  0.52840  0.37108  1.0000
  C   C157      1.0  0.39472  0.52499  0.37684  1.0000
  C   C158      1.0  0.35382  0.51828  0.39010  1.0000
  C   C159      1.0  0.36990  0.53329  0.44298  1.0000
  C   C160      1.0  0.38998  0.53662  0.43621  1.0000
  C   C161      1.0  0.55041  0.62820  0.35718  1.0000
  C   C162      1.0  0.55520  0.63857  0.43982  1.0000
  C   C163      1.0  0.56114  0.65950  0.44344  1.0000
  C   C164      1.0  0.56241  0.67065  0.36487  1.0000
  C   C165      1.0  0.56811  0.69182  0.36936  1.0000
  C   C166      1.0  0.58467  0.70573  0.42367  1.0000
  C   C167      1.0  0.58968  0.72635  0.43160  1.0000
  C   C168      1.0  0.57836  0.73389  0.38529  1.0000
  C   C169      1.0  0.60170  0.57240  0.36095  1.0000
  C   C170      1.0  0.64330  0.58148  0.37251  1.0000
  C   C171      1.0  0.63186  0.57968  0.45038  1.0000
  C   C172      1.0  0.61136  0.57521  0.44486  1.0000
  C   C173      1.0  0.66389  0.58529  0.37875  1.0000
  C   C174      1.0  0.66923  0.57475  0.44237  1.0000
  C   C175      1.0  0.68945  0.57847  0.44950  1.0000
  C   C176      1.0  0.70509  0.59278  0.39279  1.0000
  C   C177      1.0  0.50788  0.48111  0.35703  1.0000
  C   C178      1.0  0.50335  0.47066  0.43968  1.0000
  C   C179      1.0  0.49763  0.44979  0.44330  1.0000
  C   C180      1.0  0.49636  0.43877  0.36470  1.0000
  C   C181      1.0  0.49099  0.41768  0.36921  1.0000
  C   C182      1.0  0.48145  0.37580  0.38531  1.0000
  C   C183      1.0  0.47000  0.38303  0.43185  1.0000
  C   C184      1.0  0.47466  0.40356  0.42385  1.0000
  H   H103      1.0  0.45821  0.37345  0.47311  1.0000
  H   H104      1.0  0.46595  0.40811  0.45874  1.0000
  H   H105      1.0  0.49489  0.44283  0.50457  1.0000
  H   H106      1.0  0.50439  0.47824  0.49786  1.0000
  H   H107      1.0  0.47040  0.47835  0.35297  1.0000
  H   H108      1.0  0.45178  0.49861  0.35407  1.0000
  H   H109      1.0  0.51339  0.53934  0.35348  1.0000
  H   H110      1.0  0.54487  0.56996  0.35514  1.0000
  H   H111      1.0  0.54953  0.49724  0.36049  1.0000
  H   H112      1.0  0.58376  0.53054  0.36162  1.0000
  H   H113      1.0  0.60349  0.57383  0.50250  1.0000
  H   H114      1.0  0.63839  0.58172  0.51234  1.0000
  H   H115      1.0  0.60649  0.61070  0.35325  1.0000
  H   H116      1.0  0.58786  0.63095  0.35194  1.0000
  H   H117      1.0  0.47452  0.57877  0.35963  1.0000
  H   H118      1.0  0.50875  0.61207  0.35924  1.0000
  H   H119      1.0  0.55423  0.63091  0.49795  1.0000
  H   H120      1.0  0.56410  0.66640  0.50469  1.0000
  H   H121      1.0  0.60163  0.73578  0.47261  1.0000
  H   H122      1.0  0.59330  0.70096  0.45834  1.0000
  H   H123      1.0  0.40121  0.54790  0.47460  1.0000
  H   H124      1.0  0.36720  0.54209  0.48672  1.0000
  H   H125      1.0  0.42079  0.53001  0.51112  1.0000
  H   H126      1.0  0.45554  0.53743  0.50169  1.0000
  H   H127      1.0  0.65833  0.56398  0.48370  1.0000
  H   H128      1.0  0.69258  0.57044  0.49636  1.0000
  C   C185      1.0  0.33411  0.51513  0.39956  1.0000
  C   C186      1.0  0.58278  0.75397  0.39922  1.0000
  C   C187      1.0  0.72495  0.59629  0.40242  1.0000
  C   C188      1.0  0.47739  0.35581  0.39932  1.0000
  H   H129      1.0  0.32988  0.51756  0.45922  1.0000
  H   H130      1.0  0.46994  0.34850  0.45451  1.0000
  H   H131      1.0  0.72956  0.59456  0.46276  1.0000
  H   H132      1.0  0.59027  0.76111  0.45463  1.0000
  C   C189      1.0  0.59268  0.06512  0.35635  1.0000
  C   C190      1.0  0.58165  0.04393  0.35717  1.0000
  C   C191      1.0  0.56076  0.03770  0.35721  1.0000
  N   N15       1.0  0.55992  0.05529  0.35620  1.0000
  C   C192      1.0  0.57878  0.07232  0.35635  1.0000
  C   C193      1.0  0.58429  0.09338  0.35714  1.0000
  C   C194      1.0  0.57013  0.10065  0.35797  1.0000
  N   N16       1.0  0.54941  0.08946  0.35676  1.0000
  C   C195      1.0  0.54077  0.10145  0.35936  1.0000
  C   C196      1.0  0.55701  0.12167  0.36221  1.0000
  C   C197      1.0  0.57510  0.12118  0.36128  1.0000
  C   C198      1.0  0.51955  0.09515  0.35963  1.0000
  C   C199      1.0  0.50329  0.07440  0.35774  1.0000
  N   N17       1.0  0.50414  0.05682  0.35713  1.0000
  C   C200      1.0  0.48527  0.03979  0.35669  1.0000
  C   C201      1.0  0.47138  0.04700  0.35585  1.0000
  C   C202      1.0  0.48241  0.06818  0.35675  1.0000
  C   C203      1.0  0.47976  0.01873  0.35746  1.0000
  C   C204      1.0  0.49392  0.01146  0.35798  1.0000
  N   N18       1.0  0.51463  0.02265  0.35675  1.0000
  C   C205      1.0  0.52328  0.01066  0.35873  1.0000
  C   C206      1.0  0.50704  0.99042  0.36101  1.0000
  C   C207      1.0  0.48895  0.99092  0.36061  1.0000
  C   C208      1.0  0.54450  0.01695  0.35886  1.0000
  C   C209      1.0  0.54977  0.00123  0.36383  1.0000
  C   C210      1.0  0.55138  0.99349  0.44767  1.0000
  C   C211      1.0  0.55556  0.97727  0.45291  1.0000
  C   C212      1.0  0.55829  0.96832  0.37481  1.0000
  C   C213      1.0  0.56170  0.95128  0.38057  1.0000
  C   C214      1.0  0.56840  0.91705  0.39383  1.0000
  C   C215      1.0  0.55339  0.91803  0.44668  1.0000
  C   C216      1.0  0.55006  0.93479  0.43992  1.0000
  C   C217      1.0  0.45848  0.00376  0.36016  1.0000
  C   C218      1.0  0.44803  0.99789  0.44257  1.0000
  C   C219      1.0  0.42710  0.98290  0.44567  1.0000
  C   C220      1.0  0.41604  0.97326  0.36678  1.0000
  C   C221      1.0  0.39486  0.95775  0.37070  1.0000
  C   C222      1.0  0.38088  0.96021  0.42500  1.0000
  C   C223      1.0  0.36025  0.94457  0.43225  1.0000
  C   C224      1.0  0.35277  0.92589  0.38525  1.0000
  C   C225      1.0  0.51426  0.11084  0.36468  1.0000
  C   C226      1.0  0.50519  0.14334  0.37629  1.0000
  C   C227      1.0  0.50699  0.13357  0.45415  1.0000
  C   C228      1.0  0.51146  0.11756  0.44859  1.0000
  C   C229      1.0  0.50137  0.16012  0.38256  1.0000
  C   C230      1.0  0.51192  0.17588  0.44618  1.0000
  C   C231      1.0  0.50821  0.19238  0.45328  1.0000
  C   C232      1.0  0.49390  0.19381  0.39657  1.0000
  C   C233      1.0  0.60556  0.10837  0.35987  1.0000
  C   C234      1.0  0.61609  0.11427  0.44233  1.0000
  C   C235      1.0  0.63696  0.12943  0.44546  1.0000
  C   C236      1.0  0.64790  0.13921  0.36657  1.0000
  C   C237      1.0  0.66899  0.15495  0.37055  1.0000
  C   C238      1.0  0.71089  0.18729  0.38527  1.0000
  C   C239      1.0  0.70371  0.16861  0.43251  1.0000
  C   C240      1.0  0.68317  0.15275  0.42520  1.0000
  H   H133      1.0  0.71335  0.16641  0.47375  1.0000
  H   H134      1.0  0.67867  0.13950  0.46053  1.0000
  H   H135      1.0  0.64397  0.13366  0.50660  1.0000
  H   H136      1.0  0.60857  0.10772  0.50071  1.0000
  H   H137      1.0  0.60834  0.07366  0.35665  1.0000
  H   H138      1.0  0.58809  0.03477  0.35800  1.0000
  H   H139      1.0  0.54734  0.05563  0.35674  1.0000
  H   H140      1.0  0.51671  0.05647  0.35897  1.0000
  H   H141      1.0  0.58942  0.13386  0.36364  1.0000
  H   H142      1.0  0.55611  0.13477  0.36504  1.0000
  H   H143      1.0  0.51284  0.11096  0.50622  1.0000
  H   H144      1.0  0.50496  0.13795  0.51611  1.0000
  H   H145      1.0  0.47596  0.07734  0.35685  1.0000
  H   H146      1.0  0.45572  0.03846  0.35543  1.0000
  H   H147      1.0  0.50793  0.97732  0.36299  1.0000
  H   H148      1.0  0.47463  0.97823  0.36247  1.0000
  H   H149      1.0  0.45563  0.00438  0.50093  1.0000
  H   H150      1.0  0.42013  0.97872  0.50678  1.0000
  H   H151      1.0  0.35077  0.94693  0.47328  1.0000
  H   H152      1.0  0.38561  0.97347  0.46015  1.0000
  H   H153      1.0  0.53878  0.93467  0.47830  1.0000
  H   H154      1.0  0.54458  0.90644  0.49042  1.0000
  H   H155      1.0  0.55666  0.97208  0.51485  1.0000
  H   H156      1.0  0.54924  0.99942  0.50541  1.0000
  H   H157      1.0  0.52270  0.17569  0.48745  1.0000
  H   H158      1.0  0.51625  0.20346  0.50010  1.0000
  C   C241      1.0  0.57155  0.90048  0.40333  1.0000
  C   C242      1.0  0.33266  0.91018  0.39844  1.0000
  C   C243      1.0  0.49040  0.21015  0.40618  1.0000
  C   C244      1.0  0.73091  0.20320  0.39849  1.0000
  H   H159      1.0  0.56913  0.89371  0.46300  1.0000
  H   H160      1.0  0.73830  0.20307  0.45362  1.0000
  H   H161      1.0  0.49213  0.21639  0.46652  1.0000
  H   H162      1.0  0.32546  0.91030  0.45385  1.0000
  C   C245      1.0  0.28659  0.49244  0.38335  1.0000
  C   C246      1.0  0.26727  0.49143  0.38326  1.0000
  C   C247      1.0  0.26397  0.50579  0.33535  1.0000
  C   C248      1.0  0.24486  0.50547  0.33990  1.0000
  C   C249      1.0  0.23631  0.50668  0.42270  1.0000
  C   C250      1.0  0.21785  0.50742  0.42299  1.0000
  C   C251      1.0  0.20767  0.50700  0.34278  1.0000
  H   H163      1.0  0.21223  0.50900  0.48267  1.0000
  H   H164      1.0  0.25550  0.48006  0.41918  1.0000
  N   N19       1.0  0.24680  0.50821  0.50374  1.0000
  N   N20       1.0  0.28996  0.47820  0.43177  1.0000
  O   O1        1.0  0.23593  0.49370  0.55610  1.0000
  O   O2        1.0  0.28699  0.47890  0.51392  1.0000
  O   O3        1.0  0.25219  0.52490  0.54281  1.0000
  O   O4        1.0  0.27837  0.46019  0.40486  1.0000
  N   N21       1.0  0.19119  0.50921  0.33982  1.0000
  C   C252      1.0  0.57851  0.87643  0.33761  1.0000
  C   C253      1.0  0.59424  0.87567  0.38712  1.0000
  C   C254      1.0  0.59526  0.85736  0.38701  1.0000
  C   C255      1.0  0.58090  0.83980  0.33907  1.0000
  C   C256      1.0  0.58123  0.82100  0.34363  1.0000
  C   C257      1.0  0.58002  0.81109  0.42642  1.0000
  C   C258      1.0  0.57928  0.79190  0.42671  1.0000
  C   C259      1.0  0.57972  0.78228  0.34650  1.0000
  H   H165      1.0  0.57770  0.78458  0.48638  1.0000
  H   H166      1.0  0.60663  0.85691  0.42293  1.0000
  N   N22       1.0  0.57848  0.81990  0.50747  1.0000
  N   N23       1.0  0.60848  0.89320  0.43557  1.0000
  O   O5        1.0  0.59299  0.82345  0.55982  1.0000
  O   O6        1.0  0.60777  0.88937  0.51771  1.0000
  O   O7        1.0  0.56179  0.80853  0.54654  1.0000
  O   O8        1.0  0.62649  0.89967  0.40868  1.0000
  N   N24       1.0  0.57749  0.76359  0.34354  1.0000
  C   C260      1.0  0.21089  0.80009  0.38028  1.0000
  C   C261      1.0  0.22919  0.81942  0.38096  1.0000
  C   C262      1.0  0.24686  0.82279  0.33368  1.0000
  C   C263      1.0  0.26566  0.84188  0.33921  1.0000
  C   C264      1.0  0.27538  0.85027  0.42249  1.0000
  C   C265      1.0  0.29458  0.86872  0.42379  1.0000
  C   C266      1.0  0.30439  0.87905  0.34409  1.0000
  H   H167      1.0  0.30178  0.87421  0.48380  1.0000
  H   H168      1.0  0.22958  0.83113  0.41707  1.0000
  N   N25       1.0  0.26640  0.83963  0.50302  1.0000
  N   N26       1.0  0.19327  0.79664  0.42816  1.0000
  O   O9        1.0  0.26274  0.85039  0.55550  1.0000
  O   O10       1.0  0.19694  0.79949  0.51046  1.0000
  O   O11       1.0  0.27767  0.83415  0.54233  1.0000
  O   O12       1.0  0.18684  0.80825  0.40122  1.0000
  N   N27       1.0  0.32310  0.89552  0.34204  1.0000
  C   C267      1.0  0.77234  0.61892  0.38426  1.0000
  C   C268      1.0  0.79178  0.62019  0.38382  1.0000
  C   C269      1.0  0.79512  0.60586  0.33678  1.0000
  C   C270      1.0  0.81439  0.60647  0.34099  1.0000
  C   C271      1.0  0.82329  0.60555  0.42370  1.0000
  C   C272      1.0  0.84192  0.60514  0.42375  1.0000
  C   C273      1.0  0.85192  0.60558  0.34337  1.0000
  H   H169      1.0  0.84780  0.60376  0.48341  1.0000
  H   H170      1.0  0.80360  0.63175  0.41880  1.0000
  N   N28       1.0  0.81300  0.60400  0.50495  1.0000
  N   N29       1.0  0.76896  0.63319  0.43162  1.0000
  O   O13       1.0  0.82388  0.61865  0.55647  1.0000
  O   O14       1.0  0.77228  0.63280  0.51377  1.0000
  O   O15       1.0  0.80796  0.58742  0.54489  1.0000
  O   O16       1.0  0.78028  0.65114  0.40314  1.0000
  N   N30       1.0  0.86860  0.60371  0.34028  1.0000
  C   C274      1.0  0.48374  0.23452  0.33984  1.0000
  C   C275      1.0  0.46776  0.23494  0.38803  1.0000
  C   C276      1.0  0.46649  0.25311  0.38759  1.0000
  C   C277      1.0  0.48082  0.27086  0.34056  1.0000
  C   C278      1.0  0.48021  0.28951  0.34477  1.0000
  C   C279      1.0  0.48113  0.29918  0.42749  1.0000
  C   C280      1.0  0.48155  0.31823  0.42754  1.0000
  C   C281      1.0  0.48109  0.32792  0.34715  1.0000
  H   H171      1.0  0.48292  0.32538  0.48720  1.0000
  H   H172      1.0  0.45493  0.25331  0.42257  1.0000
  N   N31       1.0  0.48268  0.29030  0.50874  1.0000
  N   N32       1.0  0.45349  0.21720  0.43538  1.0000
  O   O17       1.0  0.46803  0.28644  0.56025  1.0000
  O   O18       1.0  0.45388  0.22076  0.51753  1.0000
  O   O19       1.0  0.49926  0.30177  0.54868  1.0000
  O   O20       1.0  0.43554  0.21062  0.40690  1.0000
  N   N33       1.0  0.48297  0.34648  0.34405  1.0000
  C   C282      1.0  0.85186  0.31433  0.38124  1.0000
  C   C283      1.0  0.83369  0.29488  0.38158  1.0000
  C   C284      1.0  0.81584  0.29148  0.33515  1.0000
  C   C285      1.0  0.79719  0.27223  0.34034  1.0000
  C   C286      1.0  0.78769  0.26350  0.42354  1.0000
  C   C287      1.0  0.76864  0.24489  0.42457  1.0000
  C   C288      1.0  0.75877  0.23472  0.34471  1.0000
  H   H173      1.0  0.76161  0.23913  0.48458  1.0000
  H   H174      1.0  0.83355  0.28311  0.41673  1.0000
  N   N34       1.0  0.79676  0.27395  0.50429  1.0000
  N   N35       1.0  0.86968  0.31778  0.42806  1.0000
  O   O21       1.0  0.80071  0.26316  0.55594  1.0000
  O   O22       1.0  0.86627  0.31457  0.51036  1.0000
  O   O23       1.0  0.78539  0.27909  0.54444  1.0000
  O   O24       1.0  0.87622  0.30644  0.39954  1.0000
  N   N36       1.0  0.74019  0.21807  0.34250  1.0000
