data_image0
_chemical_formula_structural       C3NC3NC5NC5NC20H18N4C3NC3NC5NC5NC20H18N4C3NC3NC5NC5NC20H18N4C3NC3NC5NC5NC20H18N4C3NC3NC5NC5NC20H18N4C3NC3NC5NC5NC20H18N4C2H2C3H2CHC2H2C3H2CHC2H2C3H2CHC2H2C3H2CHC2H2C3H2CHC2H2C3H2CHC2H2C3H2CHC2H2C3H2CHC2H2C3H2CHC2H2C3H2CHC2H2C3H2CHC2H2C3H2CHC8H8C8H8C8H8C8H8C8H8C8H8C7H3NO2CHC7H3NO2CHC7H3NO2CHC7H3NO2CHC7H3NO2CHC7H3NO2CHC7H3NO2CHC7H3NO2CHC7H3NO2CHC7H3NO2CHC7H3NO2CHC7H3NO2CH
_chemical_formula_sum              "C432 N60 H264 O24"
_cell_length_a       80.0103
_cell_length_b       80.0103
_cell_length_c       14.9666
_cell_angle_alpha    90.004
_cell_angle_beta     89.9214
_cell_angle_gamma    120

_space_group_name_H-M_alt    "P 1"
_space_group_IT_number       1

loop_
  _space_group_symop_operation_xyz
  'x, y, z'

loop_
  _atom_site_type_symbol
  _atom_site_label
  _atom_site_symmetry_multiplicity
  _atom_site_fract_x
  _atom_site_fract_y
  _atom_site_fract_z
  _atom_site_occupancy
  C   C1        1.0  0.20896  0.38120  0.31881  1.0000
  C   C2        1.0  0.22613  0.38102  0.31964  1.0000
  C   C3        1.0  0.24131  0.40012  0.31977  1.0000
  N   N1        1.0  0.23278  0.41110  0.31892  1.0000
  C   C4        1.0  0.21323  0.40041  0.31858  1.0000
  C   C5        1.0  0.19930  0.40651  0.31811  1.0000
  C   C6        1.0  0.20370  0.42605  0.31837  1.0000
  N   N2        1.0  0.22131  0.44211  0.31937  1.0000
  C   C7        1.0  0.22011  0.45837  0.31985  1.0000
  C   C8        1.0  0.20045  0.45237  0.31880  1.0000
  C   C9        1.0  0.19034  0.43246  0.31803  1.0000
  C   C10       1.0  0.23549  0.47777  0.32091  1.0000
  C   C11       1.0  0.25543  0.48347  0.32106  1.0000
  N   N3        1.0  0.26394  0.47247  0.32038  1.0000
  C   C12       1.0  0.28347  0.48318  0.32105  1.0000
  C   C13       1.0  0.28775  0.50239  0.32170  1.0000
  C   C14       1.0  0.27060  0.50256  0.32235  1.0000
  C   C15       1.0  0.29744  0.47712  0.32101  1.0000
  C   C16       1.0  0.29306  0.45761  0.32059  1.0000
  N   N4        1.0  0.27545  0.44155  0.32008  1.0000
  C   C17       1.0  0.27664  0.42529  0.32062  1.0000
  C   C18       1.0  0.29633  0.43135  0.32158  1.0000
  C   C19       1.0  0.30645  0.45126  0.32154  1.0000
  C   C20       1.0  0.26125  0.40587  0.32069  1.0000
  C   C21       1.0  0.26638  0.39118  0.32297  1.0000
  C   C22       1.0  0.28013  0.36455  0.32813  1.0000
  C   C23       1.0  0.27713  0.37123  0.24577  1.0000
  C   C24       1.0  0.27024  0.38433  0.24301  1.0000
  C   C25       1.0  0.31727  0.49173  0.32047  1.0000
  C   C26       1.0  0.35590  0.52317  0.31668  1.0000
  C   C27       1.0  0.34662  0.51329  0.23720  1.0000
  C   C28       1.0  0.32751  0.49780  0.23899  1.0000
  C   C29       1.0  0.23059  0.49261  0.32339  1.0000
  C   C30       1.0  0.23122  0.50271  0.24488  1.0000
  C   C31       1.0  0.22764  0.51822  0.24872  1.0000
  C   C32       1.0  0.22308  0.52379  0.33054  1.0000
  C   C33       1.0  0.17939  0.39207  0.31820  1.0000
  C   C34       1.0  0.16905  0.38582  0.23716  1.0000
  C   C35       1.0  0.13896  0.36543  0.31918  1.0000
  C   C36       1.0  0.14906  0.37267  0.23769  1.0000
  H   H1        1.0  0.14188  0.36891  0.17808  1.0000
  H   H2        1.0  0.17591  0.39118  0.17740  1.0000
  H   H3        1.0  0.19560  0.36911  0.31860  1.0000
  H   H4        1.0  0.22714  0.36878  0.32005  1.0000
  H   H5        1.0  0.23981  0.42496  0.31876  1.0000
  H   H6        1.0  0.25690  0.45862  0.31959  1.0000
  H   H7        1.0  0.17563  0.42420  0.31730  1.0000
  H   H8        1.0  0.19427  0.46088  0.31849  1.0000
  H   H9        1.0  0.23475  0.49914  0.18484  1.0000
  H   H10       1.0  0.22856  0.52556  0.19117  1.0000
  H   H11       1.0  0.26966  0.51484  0.32343  1.0000
  H   H12       1.0  0.30108  0.51451  0.32226  1.0000
  H   H13       1.0  0.30255  0.42288  0.32256  1.0000
  H   H14       1.0  0.32116  0.45956  0.32277  1.0000
  H   H15       1.0  0.32098  0.49127  0.18020  1.0000
  H   H16       1.0  0.35350  0.51744  0.17692  1.0000
  H   H17       1.0  0.26859  0.38927  0.18241  1.0000
  H   H18       1.0  0.28026  0.36684  0.18696  1.0000
  N   N5        1.0  0.37354  0.53861  0.32009  1.0000
  N   N6        1.0  0.22090  0.53922  0.32971  1.0000
  N   N7        1.0  0.11991  0.35387  0.32497  1.0000
  N   N8        1.0  0.28799  0.35329  0.32615  1.0000
  C   C37       1.0  0.67451  0.82830  0.32017  1.0000
  C   C38       1.0  0.67468  0.84566  0.32099  1.0000
  C   C39       1.0  0.65559  0.84174  0.32107  1.0000
  N   N9        1.0  0.64460  0.82221  0.32019  1.0000
  C   C40       1.0  0.65530  0.81337  0.31989  1.0000
  C   C41       1.0  0.64920  0.79333  0.31938  1.0000
  C   C42       1.0  0.62966  0.77819  0.31963  1.0000
  N   N10       1.0  0.61360  0.77974  0.32071  1.0000
  C   C43       1.0  0.59734  0.76229  0.32117  1.0000
  C   C44       1.0  0.60334  0.74863  0.32006  1.0000
  C   C45       1.0  0.62325  0.75843  0.31924  1.0000
  C   C46       1.0  0.57794  0.75827  0.32230  1.0000
  C   C47       1.0  0.57224  0.77250  0.32248  1.0000
  N   N11       1.0  0.58324  0.79201  0.32181  1.0000
  C   C48       1.0  0.57253  0.80084  0.32248  1.0000
  C   C49       1.0  0.55332  0.78590  0.32319  1.0000
  C   C50       1.0  0.55314  0.76858  0.32383  1.0000
  C   C51       1.0  0.57859  0.82086  0.32239  1.0000
  C   C52       1.0  0.59810  0.83600  0.32192  1.0000
  N   N12       1.0  0.61416  0.83445  0.32145  1.0000
  C   C53       1.0  0.63042  0.85190  0.32192  1.0000
  C   C54       1.0  0.62436  0.86553  0.32281  1.0000
  C   C55       1.0  0.60444  0.85573  0.32277  1.0000
  C   C56       1.0  0.64984  0.85593  0.32195  1.0000
  C   C57       1.0  0.66453  0.87575  0.32421  1.0000
  C   C58       1.0  0.69116  0.91613  0.32927  1.0000
  C   C59       1.0  0.68454  0.90642  0.24694  1.0000
  C   C60       1.0  0.67144  0.88643  0.24422  1.0000
  C   C61       1.0  0.56398  0.82609  0.32176  1.0000
  C   C62       1.0  0.53256  0.83330  0.31781  1.0000
  C   C63       1.0  0.54248  0.83387  0.23836  1.0000
  C   C64       1.0  0.55795  0.83024  0.24024  1.0000
  C   C65       1.0  0.56310  0.73852  0.32474  1.0000
  C   C66       1.0  0.55303  0.72906  0.24621  1.0000
  C   C67       1.0  0.53752  0.70997  0.25002  1.0000
  C   C68       1.0  0.53191  0.69984  0.33181  1.0000
  C   C69       1.0  0.66364  0.78786  0.31946  1.0000
  C   C70       1.0  0.66994  0.78378  0.23842  1.0000
  C   C71       1.0  0.69026  0.77405  0.32043  1.0000
  C   C72       1.0  0.68306  0.77691  0.23894  1.0000
  H   H19       1.0  0.68687  0.77352  0.17933  1.0000
  H   H20       1.0  0.66460  0.78528  0.17866  1.0000
  H   H21       1.0  0.68660  0.82703  0.31999  1.0000
  H   H22       1.0  0.68693  0.85891  0.32144  1.0000
  H   H23       1.0  0.63075  0.81540  0.31995  1.0000
  H   H24       1.0  0.59709  0.79883  0.32097  1.0000
  H   H25       1.0  0.63151  0.75197  0.31846  1.0000
  H   H26       1.0  0.59483  0.73394  0.31972  1.0000
  H   H27       1.0  0.55663  0.73617  0.18620  1.0000
  H   H28       1.0  0.53021  0.70356  0.19247  1.0000
  H   H29       1.0  0.54087  0.75536  0.32488  1.0000
  H   H30       1.0  0.54119  0.78711  0.32371  1.0000
  H   H31       1.0  0.63283  0.88022  0.32364  1.0000
  H   H32       1.0  0.59615  0.86215  0.32392  1.0000
  H   H33       1.0  0.56452  0.83023  0.18147  1.0000
  H   H34       1.0  0.53836  0.83660  0.17805  1.0000
  H   H35       1.0  0.66655  0.87984  0.18363  1.0000
  H   H36       1.0  0.68899  0.91393  0.18810  1.0000
  N   N13       1.0  0.51711  0.83549  0.32113  1.0000
  N   N14       1.0  0.51650  0.68222  0.33095  1.0000
  N   N15       1.0  0.70183  0.76658  0.32621  1.0000
  N   N16       1.0  0.70243  0.93524  0.32721  1.0000
  C   C73       1.0  0.22742  0.84675  0.31747  1.0000
  C   C74       1.0  0.21007  0.82958  0.31829  1.0000
  C   C75       1.0  0.21399  0.81441  0.31842  1.0000
  N   N17       1.0  0.23351  0.82294  0.31759  1.0000
  C   C76       1.0  0.24236  0.84248  0.31727  1.0000
  C   C77       1.0  0.26239  0.85641  0.31684  1.0000
  C   C78       1.0  0.27753  0.85201  0.31726  1.0000
  N   N18       1.0  0.27598  0.83441  0.31840  1.0000
  C   C79       1.0  0.29344  0.83560  0.31908  1.0000
  C   C80       1.0  0.30709  0.85526  0.31802  1.0000
  C   C81       1.0  0.29729  0.86537  0.31704  1.0000
  C   C82       1.0  0.29745  0.82022  0.32032  1.0000
  C   C83       1.0  0.28322  0.80028  0.32041  1.0000
  N   N19       1.0  0.26371  0.79177  0.31953  1.0000
  C   C84       1.0  0.25488  0.77224  0.32017  1.0000
  C   C85       1.0  0.26982  0.76797  0.32105  1.0000
  C   C86       1.0  0.28714  0.78511  0.32185  1.0000
  C   C87       1.0  0.23486  0.75827  0.31994  1.0000
  C   C88       1.0  0.21973  0.76265  0.31942  1.0000
  N   N20       1.0  0.22128  0.78026  0.31892  1.0000
  C   C89       1.0  0.20383  0.77907  0.31932  1.0000
  C   C90       1.0  0.19020  0.75938  0.32015  1.0000
  C   C91       1.0  0.19999  0.74926  0.32019  1.0000
  C   C92       1.0  0.19979  0.79446  0.31931  1.0000
  C   C93       1.0  0.17998  0.78933  0.32157  1.0000
  C   C94       1.0  0.13959  0.77557  0.32675  1.0000
  C   C95       1.0  0.14932  0.77863  0.24439  1.0000
  C   C96       1.0  0.16932  0.78554  0.24162  1.0000
  C   C97       1.0  0.22964  0.73844  0.31932  1.0000
  C   C98       1.0  0.22242  0.69980  0.31548  1.0000
  C   C99       1.0  0.22192  0.70915  0.23597  1.0000
  C   C100      1.0  0.22555  0.72826  0.23781  1.0000
  C   C101      1.0  0.31719  0.82512  0.32309  1.0000
  C   C102      1.0  0.32675  0.82452  0.24478  1.0000
  C   C103      1.0  0.34584  0.82811  0.24893  1.0000
  C   C104      1.0  0.35587  0.83262  0.33090  1.0000
  C   C105      1.0  0.26786  0.87633  0.31696  1.0000
  C   C106      1.0  0.27201  0.88672  0.23594  1.0000
  C   C107      1.0  0.28168  0.91676  0.31801  1.0000
  C   C108      1.0  0.27887  0.90670  0.23651  1.0000
  H   H37       1.0  0.28230  0.91391  0.17691  1.0000
  H   H38       1.0  0.27054  0.87989  0.17616  1.0000
  H   H39       1.0  0.22869  0.86012  0.31727  1.0000
  H   H40       1.0  0.19682  0.82857  0.31868  1.0000
  H   H41       1.0  0.24033  0.81590  0.31741  1.0000
  H   H42       1.0  0.25689  0.79881  0.31859  1.0000
  H   H43       1.0  0.30375  0.88008  0.31626  1.0000
  H   H44       1.0  0.32178  0.86144  0.31783  1.0000
  H   H45       1.0  0.31973  0.82103  0.18464  1.0000
  H   H46       1.0  0.35233  0.82722  0.19152  1.0000
  H   H47       1.0  0.30036  0.78605  0.32305  1.0000
  H   H48       1.0  0.26861  0.75463  0.32162  1.0000
  H   H49       1.0  0.17550  0.75316  0.32088  1.0000
  H   H50       1.0  0.19357  0.73455  0.32124  1.0000
  H   H51       1.0  0.22563  0.73484  0.17900  1.0000
  H   H52       1.0  0.21927  0.70232  0.17566  1.0000
  H   H53       1.0  0.17593  0.78722  0.18101  1.0000
  H   H54       1.0  0.14183  0.77555  0.18558  1.0000
  N   N21       1.0  0.22022  0.68216  0.31885  1.0000
  N   N22       1.0  0.37349  0.83483  0.33038  1.0000
  N   N23       1.0  0.28915  0.93581  0.32384  1.0000
  N   N24       1.0  0.12048  0.76772  0.32480  1.0000
  C   C109      1.0  0.86497  0.65630  0.32007  1.0000
  C   C110      1.0  0.84779  0.65648  0.32111  1.0000
  C   C111      1.0  0.83262  0.63739  0.32144  1.0000
  N   N25       1.0  0.84115  0.62640  0.32053  1.0000
  C   C112      1.0  0.86069  0.63709  0.31997  1.0000
  C   C113      1.0  0.87462  0.63099  0.31938  1.0000
  C   C114      1.0  0.87022  0.61144  0.31980  1.0000
  N   N26       1.0  0.85261  0.59539  0.32102  1.0000
  C   C115      1.0  0.85380  0.57913  0.32161  1.0000
  C   C116      1.0  0.87346  0.58512  0.32042  1.0000
  C   C117      1.0  0.88357  0.60504  0.31944  1.0000
  C   C118      1.0  0.83842  0.55973  0.32286  1.0000
  C   C119      1.0  0.81849  0.55403  0.32309  1.0000
  N   N27       1.0  0.80998  0.56503  0.32246  1.0000
  C   C120      1.0  0.79044  0.55433  0.32315  1.0000
  C   C121      1.0  0.78617  0.53512  0.32379  1.0000
  C   C122      1.0  0.80331  0.53494  0.32442  1.0000
  C   C123      1.0  0.77648  0.56039  0.32314  1.0000
  C   C124      1.0  0.78086  0.57990  0.32273  1.0000
  N   N28       1.0  0.79847  0.59596  0.32213  1.0000
  C   C125      1.0  0.79728  0.61222  0.32265  1.0000
  C   C126      1.0  0.77759  0.60616  0.32368  1.0000
  C   C127      1.0  0.76747  0.58625  0.32372  1.0000
  C   C128      1.0  0.81267  0.63164  0.32256  1.0000
  C   C129      1.0  0.80755  0.64633  0.32481  1.0000
  C   C130      1.0  0.79381  0.67298  0.32991  1.0000
  C   C131      1.0  0.79688  0.66632  0.24758  1.0000
  C   C132      1.0  0.80379  0.65323  0.24484  1.0000
  C   C133      1.0  0.75664  0.54578  0.32257  1.0000
  C   C134      1.0  0.71802  0.51434  0.31874  1.0000
  C   C135      1.0  0.72736  0.52425  0.23927  1.0000
  C   C136      1.0  0.74647  0.53973  0.24108  1.0000
  C   C137      1.0  0.84332  0.54488  0.32533  1.0000
  C   C138      1.0  0.84273  0.53480  0.24683  1.0000
  C   C139      1.0  0.84630  0.51929  0.25069  1.0000
  C   C140      1.0  0.85079  0.51368  0.33252  1.0000
  C   C141      1.0  0.89454  0.64542  0.31915  1.0000
  C   C142      1.0  0.90488  0.65163  0.23796  1.0000
  C   C143      1.0  0.93498  0.67202  0.31948  1.0000
  C   C144      1.0  0.92487  0.66477  0.23816  1.0000
  H   H55       1.0  0.93204  0.66851  0.17844  1.0000
  H   H56       1.0  0.89802  0.64626  0.17832  1.0000
  H   H57       1.0  0.87833  0.66839  0.31973  1.0000
  H   H58       1.0  0.84679  0.66872  0.32151  1.0000
  H   H59       1.0  0.83411  0.61255  0.32053  1.0000
  H   H60       1.0  0.81701  0.57888  0.32170  1.0000
  H   H61       1.0  0.89829  0.61329  0.31858  1.0000
  H   H62       1.0  0.87964  0.57661  0.32014  1.0000
  H   H63       1.0  0.83925  0.53839  0.18679  1.0000
  H   H64       1.0  0.84542  0.51197  0.19314  1.0000
  H   H65       1.0  0.80425  0.52266  0.32540  1.0000
  H   H66       1.0  0.77283  0.52299  0.32432  1.0000
  H   H67       1.0  0.77137  0.61463  0.32454  1.0000
  H   H68       1.0  0.75276  0.57796  0.32488  1.0000
  H   H69       1.0  0.75304  0.54628  0.18230  1.0000
  H   H70       1.0  0.72052  0.52011  0.17897  1.0000
  H   H71       1.0  0.80546  0.64830  0.18424  1.0000
  H   H72       1.0  0.79380  0.67074  0.18875  1.0000
  N   N29       1.0  0.70038  0.49890  0.32212  1.0000
  N   N30       1.0  0.85299  0.49827  0.33171  1.0000
  N   N31       1.0  0.95403  0.68360  0.32496  1.0000
  N   N32       1.0  0.78595  0.68422  0.32788  1.0000
  C   C145      1.0  0.39942  0.20921  0.32089  1.0000
  C   C146      1.0  0.39924  0.19185  0.32176  1.0000
  C   C147      1.0  0.41833  0.19577  0.32221  1.0000
  N   N33       1.0  0.42932  0.21529  0.32153  1.0000
  C   C148      1.0  0.41863  0.22414  0.32097  1.0000
  C   C149      1.0  0.42473  0.24417  0.32054  1.0000
  C   C150      1.0  0.44427  0.25931  0.32107  1.0000
  N   N34       1.0  0.46033  0.25776  0.32226  1.0000
  C   C151      1.0  0.47659  0.27522  0.32292  1.0000
  C   C152      1.0  0.47059  0.28888  0.32180  1.0000
  C   C153      1.0  0.45068  0.27908  0.32080  1.0000
  C   C154      1.0  0.49599  0.27924  0.32415  1.0000
  C   C155      1.0  0.50169  0.26500  0.32436  1.0000
  N   N35       1.0  0.49069  0.24549  0.32371  1.0000
  C   C156      1.0  0.50139  0.23666  0.32439  1.0000
  C   C157      1.0  0.52060  0.25160  0.32507  1.0000
  C   C158      1.0  0.52078  0.26892  0.32570  1.0000
  C   C159      1.0  0.49534  0.21664  0.32433  1.0000
  C   C160      1.0  0.47583  0.20150  0.32377  1.0000
  N   N36       1.0  0.45976  0.20306  0.32307  1.0000
  C   C161      1.0  0.44351  0.18561  0.32345  1.0000
  C   C162      1.0  0.44956  0.17198  0.32450  1.0000
  C   C163      1.0  0.46948  0.18177  0.32468  1.0000
  C   C164      1.0  0.42408  0.18157  0.32323  1.0000
  C   C165      1.0  0.40939  0.16176  0.32519  1.0000
  C   C166      1.0  0.38276  0.12137  0.32967  1.0000
  C   C167      1.0  0.38950  0.13114  0.24748  1.0000
  C   C168      1.0  0.40261  0.15113  0.24506  1.0000
  C   C169      1.0  0.50995  0.21141  0.32376  1.0000
  C   C170      1.0  0.54138  0.20422  0.31986  1.0000
  C   C171      1.0  0.53149  0.20363  0.24041  1.0000
  C   C172      1.0  0.51601  0.20726  0.24227  1.0000
  C   C173      1.0  0.51083  0.29898  0.32663  1.0000
  C   C174      1.0  0.52094  0.30847  0.24812  1.0000
  C   C175      1.0  0.53645  0.32756  0.25196  1.0000
  C   C176      1.0  0.54200  0.33766  0.33377  1.0000
  C   C177      1.0  0.41029  0.24965  0.32031  1.0000
  C   C178      1.0  0.40413  0.25379  0.23913  1.0000
  C   C179      1.0  0.38366  0.26345  0.32065  1.0000
  C   C180      1.0  0.39099  0.26063  0.23933  1.0000
  H   H73       1.0  0.38729  0.26408  0.17963  1.0000
  H   H74       1.0  0.40955  0.25232  0.17949  1.0000
  H   H75       1.0  0.38733  0.21048  0.32046  1.0000
  H   H76       1.0  0.38700  0.17860  0.32198  1.0000
  H   H77       1.0  0.44317  0.22211  0.32163  1.0000
  H   H78       1.0  0.47684  0.23867  0.32296  1.0000
  H   H79       1.0  0.44242  0.28554  0.31996  1.0000
  H   H80       1.0  0.47910  0.30357  0.32157  1.0000
  H   H81       1.0  0.51739  0.30139  0.18810  1.0000
  H   H82       1.0  0.54380  0.33400  0.19442  1.0000
  H   H83       1.0  0.53306  0.28214  0.32676  1.0000
  H   H84       1.0  0.53273  0.25039  0.32563  1.0000
  H   H85       1.0  0.44109  0.15728  0.32538  1.0000
  H   H86       1.0  0.47777  0.17535  0.32599  1.0000
  H   H87       1.0  0.50947  0.20727  0.18350  1.0000
  H   H88       1.0  0.53564  0.20091  0.18013  1.0000
  H   H89       1.0  0.40760  0.15778  0.18457  1.0000
  H   H90       1.0  0.38517  0.12368  0.18855  1.0000
  N   N37       1.0  0.55682  0.20203  0.32318  1.0000
  N   N38       1.0  0.55743  0.35527  0.33294  1.0000
  N   N39       1.0  0.37209  0.27093  0.32616  1.0000
  N   N40       1.0  0.37150  0.10226  0.32736  1.0000
  C   C181      1.0  0.84651  0.19076  0.31961  1.0000
  C   C182      1.0  0.86387  0.20794  0.32041  1.0000
  C   C183      1.0  0.85995  0.22311  0.32049  1.0000
  N   N41       1.0  0.84042  0.21457  0.31964  1.0000
  C   C184      1.0  0.83158  0.19503  0.31937  1.0000
  C   C185      1.0  0.81154  0.18109  0.31893  1.0000
  C   C186      1.0  0.79641  0.18550  0.31932  1.0000
  N   N42       1.0  0.79795  0.20310  0.32047  1.0000
  C   C187      1.0  0.78049  0.20191  0.32111  1.0000
  C   C188      1.0  0.76684  0.18225  0.32002  1.0000
  C   C189      1.0  0.77664  0.17214  0.31904  1.0000
  C   C190      1.0  0.77647  0.21728  0.32236  1.0000
  C   C191      1.0  0.79071  0.23722  0.32244  1.0000
  N   N43       1.0  0.81022  0.24573  0.32151  1.0000
  C   C192      1.0  0.81904  0.26527  0.32216  1.0000
  C   C193      1.0  0.80411  0.26954  0.32311  1.0000
  C   C194      1.0  0.78679  0.25239  0.32392  1.0000
  C   C195      1.0  0.83906  0.27923  0.32188  1.0000
  C   C196      1.0  0.85420  0.27486  0.32130  1.0000
  N   N44       1.0  0.85265  0.25725  0.32087  1.0000
  C   C197      1.0  0.87010  0.25844  0.32126  1.0000
  C   C198      1.0  0.88373  0.27813  0.32204  1.0000
  C   C199      1.0  0.87393  0.28825  0.32202  1.0000
  C   C200      1.0  0.87414  0.24306  0.32131  1.0000
  C   C201      1.0  0.89395  0.24818  0.32358  1.0000
  C   C202      1.0  0.93433  0.26193  0.32866  1.0000
  C   C203      1.0  0.92464  0.25887  0.24632  1.0000
  C   C204      1.0  0.90465  0.25197  0.24360  1.0000
  C   C205      1.0  0.84429  0.29907  0.32124  1.0000
  C   C206      1.0  0.85152  0.33771  0.31735  1.0000
  C   C207      1.0  0.85205  0.32838  0.23786  1.0000
  C   C208      1.0  0.84842  0.30926  0.23971  1.0000
  C   C209      1.0  0.75673  0.21238  0.32512  1.0000
  C   C210      1.0  0.74723  0.21300  0.24678  1.0000
  C   C211      1.0  0.72814  0.20941  0.25091  1.0000
  C   C212      1.0  0.71804  0.20486  0.33285  1.0000
  C   C213      1.0  0.80607  0.16118  0.31898  1.0000
  C   C214      1.0  0.80200  0.15084  0.23792  1.0000
  C   C215      1.0  0.79226  0.12075  0.31987  1.0000
  C   C216      1.0  0.79514  0.13085  0.23840  1.0000
  H   H91       1.0  0.79175  0.12367  0.17877  1.0000
  H   H92       1.0  0.80350  0.15769  0.17817  1.0000
  H   H93       1.0  0.84525  0.17740  0.31944  1.0000
  H   H94       1.0  0.87712  0.20895  0.32081  1.0000
  H   H95       1.0  0.83361  0.22161  0.31940  1.0000
  H   H96       1.0  0.81703  0.23870  0.32050  1.0000
  H   H97       1.0  0.77018  0.15742  0.31825  1.0000
  H   H98       1.0  0.75215  0.17607  0.31979  1.0000
  H   H99       1.0  0.75430  0.21653  0.18667  1.0000
  H   H100      1.0  0.72170  0.21032  0.19349  1.0000
  H   H101      1.0  0.77357  0.25145  0.32517  1.0000
  H   H102      1.0  0.80531  0.28287  0.32369  1.0000
  H   H103      1.0  0.89842  0.28435  0.32279  1.0000
  H   H104      1.0  0.88035  0.30296  0.32311  1.0000
  H   H105      1.0  0.84838  0.30270  0.18092  1.0000
  H   H106      1.0  0.85476  0.33523  0.17753  1.0000
  H   H107      1.0  0.89807  0.25029  0.18300  1.0000
  H   H108      1.0  0.93216  0.26194  0.18749  1.0000
  N   N45       1.0  0.85372  0.35535  0.32073  1.0000
  N   N46       1.0  0.70042  0.20265  0.33231  1.0000
  N   N47       1.0  0.78479  0.10170  0.32560  1.0000
  N   N48       1.0  0.95345  0.26978  0.32662  1.0000
  C   C217      1.0  0.20870  0.58401  0.26659  1.0000
  C   C218      1.0  0.20817  0.56649  0.28382  1.0000
  H   H109      1.0  0.20496  0.58623  0.20417  1.0000
  H   H110      1.0  0.20419  0.55662  0.23313  1.0000
  C   C219      1.0  0.21778  0.65269  0.27863  1.0000
  C   C220      1.0  0.22513  0.64439  0.21792  1.0000
  C   C221      1.0  0.22384  0.62654  0.23615  1.0000
  H   H111      1.0  0.23171  0.65137  0.15983  1.0000
  H   H112      1.0  0.22972  0.62130  0.19114  1.0000
  C   C222      1.0  0.21925  0.67032  0.25815  1.0000
  H   H113      1.0  0.22057  0.67424  0.19435  1.0000
  C   C223      1.0  0.47173  0.62523  0.26778  1.0000
  C   C224      1.0  0.48925  0.64221  0.28501  1.0000
  H   H114      1.0  0.46955  0.61927  0.20536  1.0000
  H   H115      1.0  0.49915  0.64810  0.23434  1.0000
  C   C225      1.0  0.40303  0.56564  0.27982  1.0000
  C   C226      1.0  0.41137  0.58129  0.21911  1.0000
  C   C227      1.0  0.42921  0.59784  0.23730  1.0000
  H   H116      1.0  0.40441  0.58089  0.16103  1.0000
  H   H117      1.0  0.43448  0.60897  0.19233  1.0000
  C   C228      1.0  0.38540  0.54949  0.25938  1.0000
  H   H118      1.0  0.38150  0.54691  0.19559  1.0000
  C   C229      1.0  0.43057  0.84711  0.26809  1.0000
  C   C230      1.0  0.41356  0.84764  0.28510  1.0000
  H   H119      1.0  0.43660  0.85093  0.20577  1.0000
  H   H120      1.0  0.40773  0.85168  0.23438  1.0000
  C   C231      1.0  0.49010  0.83795  0.28069  1.0000
  C   C232      1.0  0.47453  0.83069  0.21975  1.0000
  C   C233      1.0  0.45796  0.83198  0.23781  1.0000
  H   H121      1.0  0.47499  0.82416  0.16163  1.0000
  H   H122      1.0  0.44689  0.82614  0.19266  1.0000
  C   C234      1.0  0.50628  0.83649  0.26036  1.0000
  H   H123      1.0  0.50892  0.83520  0.19658  1.0000
  C   C235      1.0  0.86524  0.45350  0.26854  1.0000
  C   C236      1.0  0.86576  0.47102  0.28578  1.0000
  H   H124      1.0  0.86902  0.45131  0.20611  1.0000
  H   H125      1.0  0.86976  0.48091  0.23510  1.0000
  C   C237      1.0  0.85621  0.38484  0.28053  1.0000
  C   C238      1.0  0.84889  0.39315  0.21984  1.0000
  C   C239      1.0  0.85015  0.41099  0.23808  1.0000
  H   H126      1.0  0.84235  0.38619  0.16175  1.0000
  H   H127      1.0  0.84429  0.41623  0.19310  1.0000
  C   C240      1.0  0.85478  0.36723  0.26003  1.0000
  H   H128      1.0  0.85353  0.36335  0.19620  1.0000
  C   C241      1.0  0.60223  0.41229  0.26981  1.0000
  C   C242      1.0  0.58471  0.39529  0.28703  1.0000
  H   H129      1.0  0.60446  0.41827  0.20737  1.0000
  H   H130      1.0  0.57484  0.38942  0.23635  1.0000
  C   C243      1.0  0.67091  0.47188  0.28186  1.0000
  C   C244      1.0  0.66262  0.45626  0.22115  1.0000
  C   C245      1.0  0.64477  0.43969  0.23937  1.0000
  H   H131      1.0  0.66961  0.45667  0.16306  1.0000
  H   H132      1.0  0.63953  0.42859  0.19435  1.0000
  C   C246      1.0  0.68855  0.48805  0.26141  1.0000
  H   H133      1.0  0.69249  0.49066  0.19762  1.0000
  C   C247      1.0  0.64340  0.19040  0.27001  1.0000
  C   C248      1.0  0.66038  0.18986  0.28701  1.0000
  H   H134      1.0  0.63740  0.18661  0.20770  1.0000
  H   H135      1.0  0.66624  0.18583  0.23629  1.0000
  C   C249      1.0  0.58387  0.19960  0.28270  1.0000
  C   C250      1.0  0.59948  0.20688  0.22176  1.0000
  C   C251      1.0  0.61603  0.20557  0.23978  1.0000
  H   H136      1.0  0.59907  0.21343  0.16364  1.0000
  H   H137      1.0  0.62714  0.21141  0.19463  1.0000
  C   C252      1.0  0.56772  0.20109  0.26240  1.0000
  H   H138      1.0  0.56514  0.20245  0.19865  1.0000
  C   C253      1.0  0.01312  0.29458  0.26547  1.0000
  C   C254      1.0  0.99308  0.28446  0.28042  1.0000
  H   H139      1.0  0.01799  0.29848  0.20135  1.0000
  H   H140      1.0  0.98418  0.28108  0.22618  1.0000
  C   C255      1.0  0.08758  0.33169  0.28902  1.0000
  C   C256      1.0  0.07512  0.31593  0.23415  1.0000
  C   C257      1.0  0.05512  0.30539  0.25033  1.0000
  H   H141      1.0  0.08049  0.31196  0.18117  1.0000
  H   H142      1.0  0.04673  0.29400  0.20931  1.0000
  C   C258      1.0  0.10719  0.34236  0.26872  1.0000
  H   H143      1.0  0.11153  0.34091  0.20837  1.0000
  C   C259      1.0  0.76116  0.71908  0.26673  1.0000
  C   C260      1.0  0.77128  0.70917  0.28168  1.0000
  H   H144      1.0  0.75728  0.72005  0.20261  1.0000
  H   H145      1.0  0.77468  0.70365  0.22743  1.0000
  C   C261      1.0  0.72402  0.75642  0.29026  1.0000
  C   C262      1.0  0.73982  0.75973  0.23540  1.0000
  C   C263      1.0  0.75035  0.75027  0.25159  1.0000
  H   H146      1.0  0.74381  0.76907  0.18243  1.0000
  H   H147      1.0  0.76176  0.75327  0.21057  1.0000
  C   C264      1.0  0.71336  0.76535  0.26994  1.0000
  H   H148      1.0  0.71482  0.77113  0.20956  1.0000
  C   C265      1.0  0.33667  0.04265  0.26535  1.0000
  C   C266      1.0  0.34656  0.06267  0.28054  1.0000
  H   H149      1.0  0.33576  0.03785  0.20117  1.0000
  H   H150      1.0  0.35212  0.07163  0.22640  1.0000
  C   C267      1.0  0.29936  0.96817  0.28805  1.0000
  C   C268      1.0  0.29608  0.98067  0.23330  1.0000
  C   C269      1.0  0.30552  0.00065  0.24970  1.0000
  H   H151      1.0  0.28679  0.97534  0.18026  1.0000
  H   H152      1.0  0.30255  0.00908  0.20874  1.0000
  C   C270      1.0  0.29044  0.94857  0.26759  1.0000
  H   H153      1.0  0.28474  0.94428  0.20712  1.0000
  C   C271      1.0  0.06082  0.74293  0.26409  1.0000
  C   C272      1.0  0.08085  0.75307  0.27883  1.0000
  H   H154      1.0  0.05596  0.73902  0.20003  1.0000
  H   H155      1.0  0.08977  0.75645  0.22451  1.0000
  C   C273      1.0  0.98636  0.70575  0.28848  1.0000
  C   C274      1.0  0.99881  0.72152  0.23343  1.0000
  C   C275      1.0  0.01881  0.73207  0.24936  1.0000
  H   H156      1.0  0.99344  0.72548  0.18050  1.0000
  H   H157      1.0  0.02720  0.74346  0.20822  1.0000
  C   C276      1.0  0.96674  0.69507  0.26846  1.0000
  H   H158      1.0  0.96240  0.69649  0.20810  1.0000
  C   C277      1.0  0.31283  0.31844  0.26537  1.0000
  C   C278      1.0  0.30268  0.32833  0.28014  1.0000
  H   H159      1.0  0.31676  0.31749  0.20130  1.0000
  H   H160      1.0  0.29932  0.33386  0.22582  1.0000
  C   C279      1.0  0.34997  0.28113  0.28970  1.0000
  C   C280      1.0  0.33424  0.27782  0.23465  1.0000
  C   C281      1.0  0.32368  0.28728  0.25060  1.0000
  H   H161      1.0  0.33030  0.26850  0.18170  1.0000
  H   H162      1.0  0.31231  0.28428  0.20945  1.0000
  C   C282      1.0  0.36066  0.27219  0.26965  1.0000
  H   H163      1.0  0.35928  0.26645  0.20928  1.0000
  C   C283      1.0  0.73731  0.99491  0.26605  1.0000
  C   C284      1.0  0.72740  0.97487  0.28100  1.0000
  H   H164      1.0  0.73829  0.99976  0.20193  1.0000
  H   H165      1.0  0.72188  0.96596  0.22675  1.0000
  C   C285      1.0  0.77463  0.06937  0.28960  1.0000
  C   C286      1.0  0.77795  0.05690  0.23474  1.0000
  C   C287      1.0  0.76849  0.03690  0.25092  1.0000
  H   H166      1.0  0.78730  0.06227  0.18176  1.0000
  H   H167      1.0  0.77150  0.02851  0.20989  1.0000
  C   C288      1.0  0.78357  0.08898  0.26931  1.0000
  H   H168      1.0  0.78935  0.09331  0.20891  1.0000
  C   C289      1.0  0.26937  0.38455  0.40557  1.0000
  C   C290      1.0  0.27618  0.37138  0.40810  1.0000
  C   C291      1.0  0.32661  0.50122  0.40024  1.0000
  C   C292      1.0  0.34572  0.51675  0.39815  1.0000
  C   C293      1.0  0.22241  0.51360  0.40902  1.0000
  C   C294      1.0  0.22612  0.49818  0.40551  1.0000
  C   C295      1.0  0.16937  0.38488  0.39965  1.0000
  C   C296      1.0  0.14938  0.37177  0.39993  1.0000
  H   H169      1.0  0.14240  0.36705  0.45994  1.0000
  H   H170      1.0  0.17649  0.38950  0.45930  1.0000
  H   H171      1.0  0.22594  0.49131  0.46353  1.0000
  H   H172      1.0  0.21975  0.51764  0.46979  1.0000
  H   H173      1.0  0.31940  0.49723  0.45994  1.0000
  H   H174      1.0  0.35199  0.52367  0.45666  1.0000
  H   H175      1.0  0.27890  0.36740  0.46884  1.0000
  H   H176      1.0  0.26718  0.38971  0.46440  1.0000
  C   C297      1.0  0.67110  0.88538  0.40680  1.0000
  C   C298      1.0  0.68425  0.90536  0.40927  1.0000
  C   C299      1.0  0.55444  0.82595  0.40149  1.0000
  C   C300      1.0  0.53892  0.82954  0.39932  1.0000
  C   C301      1.0  0.54208  0.70934  0.41030  1.0000
  C   C302      1.0  0.55750  0.72847  0.40682  1.0000
  C   C303      1.0  0.67078  0.78503  0.40091  1.0000
  C   C304      1.0  0.68390  0.77815  0.40119  1.0000
  H   H177      1.0  0.68858  0.77588  0.46119  1.0000
  H   H178      1.0  0.66614  0.78753  0.46056  1.0000
  H   H179      1.0  0.56434  0.73516  0.46486  1.0000
  H   H180      1.0  0.53800  0.70264  0.47104  1.0000
  H   H181      1.0  0.55839  0.82272  0.46122  1.0000
  H   H182      1.0  0.53196  0.82888  0.45779  1.0000
  H   H183      1.0  0.68821  0.91207  0.46999  1.0000
  H   H184      1.0  0.66589  0.87805  0.46564  1.0000
  C   C305      1.0  0.17031  0.78629  0.40418  1.0000
  C   C306      1.0  0.15034  0.77947  0.40671  1.0000
  C   C307      1.0  0.22970  0.72904  0.39910  1.0000
  C   C308      1.0  0.22610  0.70993  0.39698  1.0000
  C   C309      1.0  0.34627  0.83329  0.40918  1.0000
  C   C310      1.0  0.32714  0.82956  0.40536  1.0000
  C   C311      1.0  0.27063  0.88629  0.39842  1.0000
  C   C312      1.0  0.27753  0.90629  0.39874  1.0000
  H   H185      1.0  0.27975  0.91323  0.45876  1.0000
  H   H186      1.0  0.26809  0.87914  0.45805  1.0000
  H   H187      1.0  0.32038  0.82972  0.46325  1.0000
  H   H188      1.0  0.35289  0.83590  0.47005  1.0000
  H   H189      1.0  0.23285  0.73621  0.45885  1.0000
  H   H190      1.0  0.22669  0.70361  0.45549  1.0000
  H   H191      1.0  0.14360  0.77672  0.46746  1.0000
  H   H192      1.0  0.17763  0.78843  0.46301  1.0000
  C   C313      1.0  0.80448  0.65292  0.40741  1.0000
  C   C314      1.0  0.79768  0.66609  0.40990  1.0000
  C   C315      1.0  0.74725  0.53626  0.40233  1.0000
  C   C316      1.0  0.72814  0.52074  0.40022  1.0000
  C   C317      1.0  0.85145  0.52388  0.41098  1.0000
  C   C318      1.0  0.84775  0.53930  0.40745  1.0000
  C   C319      1.0  0.90455  0.65263  0.40043  1.0000
  C   C320      1.0  0.92455  0.66574  0.40040  1.0000
  H   H193      1.0  0.93153  0.67048  0.46029  1.0000
  H   H194      1.0  0.89744  0.64806  0.46019  1.0000
  H   H195      1.0  0.84788  0.54615  0.46547  1.0000
  H   H196      1.0  0.85405  0.51981  0.47175  1.0000
  H   H197      1.0  0.75441  0.54024  0.46206  1.0000
  H   H198      1.0  0.72182  0.51380  0.45873  1.0000
  H   H199      1.0  0.79490  0.67004  0.47064  1.0000
  H   H200      1.0  0.80660  0.64772  0.46624  1.0000
  C   C321      1.0  0.40269  0.15205  0.40763  1.0000
  C   C322      1.0  0.38952  0.13207  0.40982  1.0000
  C   C323      1.0  0.51944  0.21156  0.40349  1.0000
  C   C324      1.0  0.53497  0.20798  0.40134  1.0000
  C   C325      1.0  0.53179  0.32812  0.41226  1.0000
  C   C326      1.0  0.51638  0.30899  0.40875  1.0000
  C   C327      1.0  0.40302  0.25242  0.40159  1.0000
  C   C328      1.0  0.38991  0.25931  0.40156  1.0000
  H   H201      1.0  0.38513  0.26154  0.46145  1.0000
  H   H202      1.0  0.40757  0.24989  0.46135  1.0000
  H   H203      1.0  0.50949  0.30228  0.46677  1.0000
  H   H204      1.0  0.53582  0.33480  0.47301  1.0000
  H   H205      1.0  0.51545  0.21477  0.46321  1.0000
  H   H206      1.0  0.54189  0.20862  0.45982  1.0000
  H   H207      1.0  0.38549  0.12530  0.47045  1.0000
  H   H208      1.0  0.40780  0.15934  0.46659  1.0000
  C   C329      1.0  0.90358  0.25122  0.40617  1.0000
  C   C330      1.0  0.92355  0.25805  0.40866  1.0000
  C   C331      1.0  0.84419  0.30845  0.40101  1.0000
  C   C332      1.0  0.84777  0.32756  0.39887  1.0000
  C   C333      1.0  0.72759  0.20418  0.41116  1.0000
  C   C334      1.0  0.74672  0.20790  0.40735  1.0000
  C   C335      1.0  0.80324  0.15118  0.40040  1.0000
  C   C336      1.0  0.79635  0.13118  0.40064  1.0000
  H   H209      1.0  0.79408  0.12421  0.46063  1.0000
  H   H210      1.0  0.80573  0.15829  0.46006  1.0000
  H   H211      1.0  0.75344  0.20773  0.46526  1.0000
  H   H212      1.0  0.72091  0.20152  0.47200  1.0000
  H   H213      1.0  0.84097  0.30126  0.46076  1.0000
  H   H214      1.0  0.84715  0.33386  0.45738  1.0000
  H   H215      1.0  0.93025  0.26079  0.46939  1.0000
  H   H216      1.0  0.89623  0.24909  0.46501  1.0000
  C   C337      1.0  0.21293  0.56250  0.36912  1.0000
  C   C338      1.0  0.21810  0.57652  0.43806  1.0000
  C   C339      1.0  0.21859  0.59407  0.41933  1.0000
  C   C340      1.0  0.21400  0.59819  0.33387  1.0000
  C   C341      1.0  0.21508  0.61625  0.31559  1.0000
  C   C342      1.0  0.20772  0.62457  0.37629  1.0000
  C   C343      1.0  0.20900  0.64245  0.35816  1.0000
  H   H217      1.0  0.20099  0.61749  0.43388  1.0000
  H   H218      1.0  0.20330  0.64783  0.40341  1.0000
  H   H219      1.0  0.22283  0.60422  0.46886  1.0000
  N   N49       1.0  0.22336  0.57461  0.52615  1.0000
  O   O1        1.0  0.20960  0.56108  0.56772  1.0000
  O   O2        1.0  0.23773  0.57223  0.52748  1.0000
  C   C344      1.0  0.21248  0.54516  0.38377  1.0000
  H   H220      1.0  0.20593  0.53757  0.43811  1.0000
  C   C345      1.0  0.49320  0.65097  0.37030  1.0000
  C   C346      1.0  0.47913  0.64213  0.43923  1.0000
  C   C347      1.0  0.46160  0.62507  0.42051  1.0000
  C   C348      1.0  0.45752  0.61636  0.33505  1.0000
  C   C349      1.0  0.43946  0.59938  0.31676  1.0000
  C   C350      1.0  0.43111  0.58369  0.37745  1.0000
  C   C351      1.0  0.41323  0.56710  0.35934  1.0000
  H   H221      1.0  0.43816  0.58405  0.43508  1.0000
  H   H222      1.0  0.40782  0.55602  0.40461  1.0000
  H   H223      1.0  0.45142  0.61916  0.47003  1.0000
  N   N50       1.0  0.48100  0.64929  0.52733  1.0000
  O   O3        1.0  0.49451  0.64906  0.56890  1.0000
  O   O4        1.0  0.48340  0.66606  0.52868  1.0000
  C   C352      1.0  0.51053  0.66785  0.38496  1.0000
  H   H224      1.0  0.51808  0.66890  0.43936  1.0000
  C   C353      1.0  0.40469  0.84276  0.37024  1.0000
  C   C354      1.0  0.41345  0.83751  0.43925  1.0000
  C   C355      1.0  0.43052  0.83703  0.42073  1.0000
  C   C356      1.0  0.43935  0.84172  0.33542  1.0000
  C   C357      1.0  0.45634  0.84064  0.31731  1.0000
  C   C358      1.0  0.47195  0.84793  0.37824  1.0000
  C   C359      1.0  0.48856  0.84664  0.36028  1.0000
  H   H225      1.0  0.47153  0.85459  0.43591  1.0000
  H   H226      1.0  0.49959  0.85228  0.40570  1.0000
  H   H227      1.0  0.43637  0.83273  0.47028  1.0000
  N   N51       1.0  0.40616  0.83214  0.52719  1.0000
  O   O5        1.0  0.40633  0.84585  0.56888  1.0000
  O   O6        1.0  0.38940  0.81777  0.52817  1.0000
  C   C360      1.0  0.38779  0.84320  0.38467  1.0000
  H   H228      1.0  0.38667  0.84969  0.43902  1.0000
  C   C361      1.0  0.86094  0.47498  0.37109  1.0000
  C   C362      1.0  0.85574  0.46094  0.44003  1.0000
  C   C363      1.0  0.85527  0.44340  0.42129  1.0000
  C   C364      1.0  0.85991  0.43931  0.33581  1.0000
  C   C365      1.0  0.85885  0.42126  0.31752  1.0000
  C   C366      1.0  0.86619  0.41293  0.37820  1.0000
  C   C367      1.0  0.86493  0.39506  0.36006  1.0000
  H   H229      1.0  0.87288  0.41999  0.43579  1.0000
  H   H230      1.0  0.87062  0.38967  0.40528  1.0000
  H   H231      1.0  0.85100  0.43323  0.47082  1.0000
  N   N52       1.0  0.85042  0.46281  0.52814  1.0000
  O   O7        1.0  0.86415  0.47633  0.56969  1.0000
  O   O8        1.0  0.83604  0.46519  0.52950  1.0000
  C   C368      1.0  0.86137  0.49230  0.38577  1.0000
  H   H232      1.0  0.86787  0.49987  0.44013  1.0000
  C   C369      1.0  0.58070  0.38651  0.37233  1.0000
  C   C370      1.0  0.59471  0.39534  0.44127  1.0000
  C   C371      1.0  0.61226  0.41240  0.42254  1.0000
  C   C372      1.0  0.61640  0.42114  0.33708  1.0000
  C   C373      1.0  0.63446  0.43813  0.31880  1.0000
  C   C374      1.0  0.64277  0.45379  0.37951  1.0000
  C   C375      1.0  0.66066  0.47040  0.36138  1.0000
  H   H233      1.0  0.63568  0.45342  0.43710  1.0000
  H   H234      1.0  0.66603  0.48147  0.40665  1.0000
  H   H235      1.0  0.62240  0.41830  0.47207  1.0000
  N   N53       1.0  0.59279  0.38815  0.52937  1.0000
  O   O9        1.0  0.57925  0.38836  0.57093  1.0000
  O   O10       1.0  0.59040  0.37139  0.53070  1.0000
  C   C376      1.0  0.56336  0.36962  0.38699  1.0000
  H   H236      1.0  0.55576  0.36856  0.44132  1.0000
  C   C377      1.0  0.66920  0.19470  0.37215  1.0000
  C   C378      1.0  0.66040  0.19994  0.44116  1.0000
  C   C379      1.0  0.64334  0.20043  0.42267  1.0000
  C   C380      1.0  0.63458  0.19578  0.33736  1.0000
  C   C381      1.0  0.61760  0.19687  0.31927  1.0000
  C   C382      1.0  0.60194  0.18956  0.38020  1.0000
  C   C383      1.0  0.58536  0.19087  0.36226  1.0000
  H   H237      1.0  0.60233  0.18289  0.43786  1.0000
  H   H238      1.0  0.57430  0.18522  0.40769  1.0000
  H   H239      1.0  0.63747  0.20473  0.47223  1.0000
  N   N54       1.0  0.66763  0.20528  0.52912  1.0000
  O   O11       1.0  0.66742  0.19155  0.57079  1.0000
  O   O12       1.0  0.68439  0.21964  0.53012  1.0000
  C   C384      1.0  0.68608  0.19425  0.38656  1.0000
  H   H240      1.0  0.68717  0.18776  0.44096  1.0000
  C   C385      1.0  0.98533  0.27902  0.36770  1.0000
  C   C386      1.0  0.99843  0.28401  0.44043  1.0000
  C   C387      1.0  0.01859  0.29424  0.42412  1.0000
  C   C388      1.0  0.02631  0.29972  0.33703  1.0000
  C   C389      1.0  0.04672  0.31019  0.32194  1.0000
  C   C390      1.0  0.05921  0.32586  0.37730  1.0000
  C   C391      1.0  0.07923  0.33643  0.36114  1.0000
  H   H241      1.0  0.05377  0.33013  0.42877  1.0000
  H   H242      1.0  0.08760  0.34791  0.40180  1.0000
  H   H243      1.0  0.02774  0.29746  0.47728  1.0000
  N   N55       1.0  0.99132  0.27891  0.52896  1.0000
  O   O13       1.0  0.99644  0.26792  0.56406  1.0000
  O   O14       1.0  0.99686  0.29355  0.57758  1.0000
  C   C392      1.0  0.96538  0.26896  0.38156  1.0000
  H   H244      1.0  0.96017  0.26101  0.43649  1.0000
  C   C393      1.0  0.77667  0.70686  0.36895  1.0000
  C   C394      1.0  0.77165  0.71497  0.44169  1.0000
  C   C395      1.0  0.76142  0.72490  0.42538  1.0000
  C   C396      1.0  0.75597  0.72713  0.33829  1.0000
  C   C397      1.0  0.74551  0.73707  0.32320  1.0000
  C   C398      1.0  0.72982  0.73390  0.37860  1.0000
  C   C399      1.0  0.71925  0.74334  0.36239  1.0000
  H   H245      1.0  0.72551  0.72417  0.43000  1.0000
  H   H246      1.0  0.70775  0.74022  0.40302  1.0000
  H   H247      1.0  0.75816  0.73082  0.47854  1.0000
  N   N56       1.0  0.77670  0.71296  0.53021  1.0000
  O   O15       1.0  0.78767  0.72908  0.56533  1.0000
  O   O16       1.0  0.76203  0.70385  0.57884  1.0000
  C   C400      1.0  0.78673  0.69698  0.38281  1.0000
  H   H248      1.0  0.79467  0.69974  0.43769  1.0000
  C   C401      1.0  0.34879  0.07033  0.36790  1.0000
  C   C402      1.0  0.34063  0.05716  0.44047  1.0000
  C   C403      1.0  0.33072  0.03701  0.42392  1.0000
  C   C404      1.0  0.32857  0.02938  0.33675  1.0000
  C   C405      1.0  0.31866  0.00899  0.32142  1.0000
  C   C406      1.0  0.32180  0.99645  0.37671  1.0000
  C   C407      1.0  0.31238  0.97645  0.36030  1.0000
  H   H249      1.0  0.33148  0.00185  0.42819  1.0000
  H   H250      1.0  0.31547  0.96805  0.40088  1.0000
  H   H251      1.0  0.32477  0.02780  0.47698  1.0000
  N   N57       1.0  0.34257  0.06417  0.52908  1.0000
  O   O17       1.0  0.32642  0.05900  0.56413  1.0000
  O   O18       1.0  0.35164  0.05859  0.57765  1.0000
  C   C408      1.0  0.35866  0.09026  0.38200  1.0000
  H   H252      1.0  0.35582  0.09541  0.43686  1.0000
  C   C409      1.0  0.08859  0.75851  0.36602  1.0000
  C   C410      1.0  0.07548  0.75353  0.43888  1.0000
  C   C411      1.0  0.05531  0.74328  0.42279  1.0000
  C   C412      1.0  0.04761  0.73778  0.33579  1.0000
  C   C413      1.0  0.02720  0.72729  0.32092  1.0000
  C   C414      1.0  0.01472  0.71162  0.37649  1.0000
  C   C415      1.0  0.99470  0.70103  0.36054  1.0000
  H   H253      1.0  0.02016  0.70737  0.42792  1.0000
  H   H254      1.0  0.98633  0.68957  0.40137  1.0000
  H   H255      1.0  0.04616  0.74005  0.47604  1.0000
  N   N58       1.0  0.08257  0.75863  0.52733  1.0000
  O   O19       1.0  0.07742  0.76961  0.56245  1.0000
  O   O20       1.0  0.07703  0.74399  0.57605  1.0000
  C   C416      1.0  0.10853  0.76859  0.37968  1.0000
  H   H256      1.0  0.11373  0.77657  0.43445  1.0000
  C   C417      1.0  0.29719  0.33062  0.36733  1.0000
  C   C418      1.0  0.30215  0.32250  0.44018  1.0000
  C   C419      1.0  0.31240  0.31259  0.42406  1.0000
  C   C420      1.0  0.31795  0.31038  0.33704  1.0000
  C   C421      1.0  0.32844  0.30046  0.32215  1.0000
  C   C422      1.0  0.34408  0.30364  0.37769  1.0000
  C   C423      1.0  0.35466  0.29420  0.36177  1.0000
  H   H257      1.0  0.34831  0.31334  0.42913  1.0000
  H   H258      1.0  0.36612  0.29730  0.40255  1.0000
  H   H259      1.0  0.31561  0.30666  0.47730  1.0000
  N   N59       1.0  0.29701  0.32449  0.52863  1.0000
  O   O21       1.0  0.28600  0.30836  0.56375  1.0000
  O   O22       1.0  0.31162  0.33359  0.57735  1.0000
  C   C424      1.0  0.28711  0.34049  0.38102  1.0000
  H   H260      1.0  0.27909  0.33768  0.43576  1.0000
  C   C425      1.0  0.72507  0.96713  0.36827  1.0000
  C   C426      1.0  0.73316  0.98024  0.44100  1.0000
  C   C427      1.0  0.74310  0.00040  0.42470  1.0000
  C   C428      1.0  0.74534  0.00811  0.33761  1.0000
  C   C429      1.0  0.75528  0.02852  0.32252  1.0000
  C   C430      1.0  0.75210  0.04102  0.37793  1.0000
  C   C431      1.0  0.76154  0.06103  0.36174  1.0000
  H   H261      1.0  0.74236  0.03557  0.42933  1.0000
  H   H262      1.0  0.75841  0.06940  0.40238  1.0000
  H   H263      1.0  0.74901  0.00956  0.47786  1.0000
  N   N60       1.0  0.73113  0.97315  0.52953  1.0000
  O   O23       1.0  0.74725  0.97828  0.56464  1.0000
  O   O24       1.0  0.72202  0.97870  0.57815  1.0000
  C   C432      1.0  0.71518  0.94719  0.38213  1.0000
  H   H264      1.0  0.71791  0.94199  0.43705  1.0000
