data_image0
_chemical_formula_structural       C8H3C2N2CNC3NC8H3C2N2CNC3NC2NC2NC4HCH2C4HCH2C2NCN2C2NC4HCH2C4HCH2C2NCN2C2N2C2NC20NC2NC2NC2N2C2N2C2NC20NC2NC2NC2NC7HCH2NC2N2C2NCHCH2C2H3C2NC2NC2NC2NC7HCH2NC2N2C2NCHCH2C2H3C2NC2NC2NC2NC8HC7HCH4NC2N2C2N2C2N2C2N2C2N2C2NC8HC7HCH4C8HC7HCH4C2NC2NC2NC2NC2NC2NC2NC2NC2NC2NC2NC2NC8HC7HCH4NC2N2C2N2C2N2C2N2C2N2C2NC8HC7HCH4C8HC7HCH4C2NC2NC2NC2NC2NC2NC2NC2NC2NC2NC2NC2N
_chemical_formula_sum              "C336 H72 N96"
_cell_length_a       46.4907
_cell_length_b       46.4908
_cell_length_c       14.8101
_cell_angle_alpha    89.998
_cell_angle_beta     90.002
_cell_angle_gamma    120

_space_group_name_H-M_alt    "P 1"
_space_group_IT_number       1

loop_
  _space_group_symop_operation_xyz
  'x, y, z'

loop_
  _atom_site_type_symbol
  _atom_site_label
  _atom_site_symmetry_multiplicity
  _atom_site_fract_x
  _atom_site_fract_y
  _atom_site_fract_z
  _atom_site_occupancy
  C   C1        1.0  0.02787  0.26488  0.34647  1.0000
  C   C2        1.0  0.04576  0.30045  0.34676  1.0000
  C   C3        1.0  0.08115  0.31811  0.34705  1.0000
  C   C4        1.0  0.09792  0.29987  0.34645  1.0000
  C   C5        1.0  0.08111  0.26485  0.34584  1.0000
  C   C6        1.0  0.04574  0.24718  0.34617  1.0000
  C   C7        1.0  0.02748  0.31725  0.34663  1.0000
  C   C8        1.0  0.02744  0.21210  0.34633  1.0000
  H   H1        1.0  0.12348  0.31263  0.34647  1.0000
  H   H2        1.0  0.03938  0.34265  0.34670  1.0000
  H   H3        1.0  0.03933  0.19859  0.34626  1.0000
  C   C9        1.0  0.11867  0.25056  0.26372  1.0000
  C   C10       1.0  0.10982  0.25426  0.18311  1.0000
  N   N1        1.0  0.10199  0.25770  0.11222  1.0000
  N   N2        1.0  0.11758  0.36756  0.27075  1.0000
  C   C11       1.0  0.10170  0.25039  0.34370  1.0000
  N   N3        1.0  0.11738  0.25167  0.42250  1.0000
  C   C12       1.0  0.10180  0.35314  0.34946  1.0000
  C   C13       1.0  0.11888  0.36976  0.42952  1.0000
  C   C14       1.0  0.10991  0.35718  0.51007  1.0000
  N   N4        1.0  0.10199  0.34590  0.58093  1.0000
  C   C15       1.0  0.02787  0.76488  0.34647  1.0000
  C   C16       1.0  0.04576  0.80045  0.34676  1.0000
  C   C17       1.0  0.08115  0.81811  0.34705  1.0000
  C   C18       1.0  0.09792  0.79987  0.34645  1.0000
  C   C19       1.0  0.08111  0.76485  0.34584  1.0000
  C   C20       1.0  0.04574  0.74718  0.34617  1.0000
  C   C21       1.0  0.02748  0.81725  0.34663  1.0000
  C   C22       1.0  0.02744  0.71210  0.34633  1.0000
  H   H4        1.0  0.12348  0.81262  0.34647  1.0000
  H   H5        1.0  0.03938  0.84265  0.34670  1.0000
  H   H6        1.0  0.03933  0.69858  0.34626  1.0000
  C   C23       1.0  0.11867  0.75056  0.26372  1.0000
  C   C24       1.0  0.10982  0.75426  0.18311  1.0000
  N   N5        1.0  0.10199  0.75770  0.11222  1.0000
  N   N6        1.0  0.11758  0.86756  0.27075  1.0000
  C   C25       1.0  0.10170  0.75039  0.34370  1.0000
  N   N7        1.0  0.11738  0.75166  0.42250  1.0000
  C   C26       1.0  0.10180  0.85314  0.34946  1.0000
  C   C27       1.0  0.11888  0.86976  0.42952  1.0000
  C   C28       1.0  0.10990  0.85717  0.51007  1.0000
  N   N8        1.0  0.10199  0.84590  0.58093  1.0000
  C   C29       1.0  0.14580  0.25025  0.42993  1.0000
  C   C30       1.0  0.14580  0.75025  0.42993  1.0000
  N   N9        1.0  0.14832  0.25158  0.27123  1.0000
  C   C31       1.0  0.14622  0.39720  0.26358  1.0000
  C   C32       1.0  0.15875  0.40623  0.18299  1.0000
  N   N10       1.0  0.17000  0.41420  0.11212  1.0000
  C   C33       1.0  0.21529  0.24672  0.34686  1.0000
  C   C34       1.0  0.19760  0.26441  0.34703  1.0000
  C   C35       1.0  0.21583  0.29944  0.34656  1.0000
  C   C36       1.0  0.19851  0.21163  0.34687  1.0000
  H   H7        1.0  0.20306  0.31222  0.34674  1.0000
  C   C37       1.0  0.21594  0.19420  0.34621  1.0000
  H   H8        1.0  0.20244  0.16880  0.34612  1.0000
  H   H9        1.0  0.17311  0.19812  0.34697  1.0000
  C   C38       1.0  0.21634  0.41783  0.34671  1.0000
  C   C39       1.0  0.19813  0.43464  0.34593  1.0000
  C   C40       1.0  0.21583  0.47001  0.34599  1.0000
  C   C41       1.0  0.19902  0.48829  0.34601  1.0000
  H   H10       1.0  0.20355  0.39227  0.34685  1.0000
  C   C42       1.0  0.21644  0.02314  0.34672  1.0000
  H   H11       1.0  0.20292  0.03502  0.34682  1.0000
  H   H12       1.0  0.17362  0.47640  0.34594  1.0000
  C   C43       1.0  0.16257  0.24996  0.35007  1.0000
  C   C44       1.0  0.15839  0.25393  0.51047  1.0000
  N   N11       1.0  0.16969  0.25736  0.58133  1.0000
  C   C45       1.0  0.16310  0.41408  0.34357  1.0000
  N   N12       1.0  0.14868  0.39821  0.42220  1.0000
  N   N13       1.0  0.14832  0.75158  0.27123  1.0000
  C   C46       1.0  0.14622  0.89720  0.26358  1.0000
  C   C47       1.0  0.15875  0.90623  0.18299  1.0000
  N   N14       1.0  0.17000  0.91420  0.11212  1.0000
  C   C48       1.0  0.21529  0.74672  0.34686  1.0000
  C   C49       1.0  0.19760  0.76441  0.34703  1.0000
  C   C50       1.0  0.21583  0.79944  0.34656  1.0000
  C   C51       1.0  0.19851  0.71163  0.34687  1.0000
  H   H13       1.0  0.20306  0.81222  0.34674  1.0000
  C   C52       1.0  0.21594  0.69420  0.34621  1.0000
  H   H14       1.0  0.20244  0.66880  0.34612  1.0000
  H   H15       1.0  0.17311  0.69812  0.34697  1.0000
  C   C53       1.0  0.21634  0.91783  0.34671  1.0000
  C   C54       1.0  0.19813  0.93464  0.34593  1.0000
  C   C55       1.0  0.21583  0.97001  0.34599  1.0000
  C   C56       1.0  0.19902  0.98829  0.34601  1.0000
  H   H16       1.0  0.20355  0.89227  0.34685  1.0000
  C   C57       1.0  0.21644  0.52314  0.34672  1.0000
  H   H17       1.0  0.20292  0.53502  0.34682  1.0000
  H   H18       1.0  0.17362  0.97640  0.34594  1.0000
  C   C58       1.0  0.16256  0.74996  0.35007  1.0000
  C   C59       1.0  0.15839  0.75393  0.51047  1.0000
  N   N15       1.0  0.16969  0.75736  0.58133  1.0000
  C   C60       1.0  0.16310  0.91408  0.34357  1.0000
  N   N16       1.0  0.14868  0.89821  0.42220  1.0000
  N   N17       1.0  0.26427  0.39822  0.27116  1.0000
  C   C61       1.0  0.26528  0.36958  0.26377  1.0000
  C   C62       1.0  0.26160  0.35704  0.18313  1.0000
  N   N18       1.0  0.25819  0.34579  0.11223  1.0000
  N   N19       1.0  0.25614  0.11307  0.27100  1.0000
  C   C63       1.0  0.25480  0.14152  0.26339  1.0000
  C   C64       1.0  0.25849  0.15407  0.18279  1.0000
  N   N20       1.0  0.26193  0.16532  0.11187  1.0000
  C   C65       1.0  0.25086  0.26440  0.34643  1.0000
  C   C66       1.0  0.25085  0.31766  0.34582  1.0000
  C   C67       1.0  0.26854  0.29997  0.34603  1.0000
  C   C68       1.0  0.30363  0.31677  0.34607  1.0000
  C   C69       1.0  0.26870  0.24657  0.34649  1.0000
  C   C70       1.0  0.25103  0.21100  0.34615  1.0000
  C   C71       1.0  0.26874  0.19332  0.34589  1.0000
  C   C72       1.0  0.30376  0.21157  0.34641  1.0000
  C   C73       1.0  0.30427  0.26426  0.34686  1.0000
  C   C74       1.0  0.25139  0.48788  0.34636  1.0000
  C   C75       1.0  0.26907  0.47000  0.34682  1.0000
  C   C76       1.0  0.25137  0.43461  0.34719  1.0000
  C   C77       1.0  0.30416  0.48831  0.34678  1.0000
  C   C78       1.0  0.26922  0.02357  0.34635  1.0000
  C   C79       1.0  0.30479  0.04146  0.34599  1.0000
  C   C80       1.0  0.30420  0.09363  0.34655  1.0000
  C   C81       1.0  0.26919  0.07681  0.34704  1.0000
  C   C82       1.0  0.25152  0.04143  0.34676  1.0000
  C   C83       1.0  0.26579  0.41398  0.35006  1.0000
  C   C84       1.0  0.26530  0.35271  0.34377  1.0000
  N   N21       1.0  0.26397  0.36709  0.42258  1.0000
  C   C85       1.0  0.26537  0.39691  0.43000  1.0000
  C   C86       1.0  0.26181  0.40592  0.51054  1.0000
  N   N22       1.0  0.25848  0.41385  0.58140  1.0000
  C   C87       1.0  0.25467  0.09733  0.34992  1.0000
  C   C88       1.0  0.25432  0.15830  0.34309  1.0000
  N   N23       1.0  0.25585  0.14400  0.42194  1.0000
  C   C89       1.0  0.25479  0.11434  0.42966  1.0000
  C   C90       1.0  0.25859  0.10557  0.51027  1.0000
  N   N24       1.0  0.26211  0.09781  0.58116  1.0000
  N   N25       1.0  0.26427  0.89822  0.27116  1.0000
  C   C91       1.0  0.26528  0.86958  0.26377  1.0000
  C   C92       1.0  0.26160  0.85704  0.18313  1.0000
  N   N26       1.0  0.25819  0.84579  0.11223  1.0000
  N   N27       1.0  0.25614  0.61307  0.27100  1.0000
  C   C93       1.0  0.25480  0.64152  0.26339  1.0000
  C   C94       1.0  0.25849  0.65407  0.18279  1.0000
  N   N28       1.0  0.26193  0.66532  0.11187  1.0000
  C   C95       1.0  0.25086  0.76440  0.34644  1.0000
  C   C96       1.0  0.25085  0.81766  0.34582  1.0000
  C   C97       1.0  0.26854  0.79997  0.34603  1.0000
  C   C98       1.0  0.30363  0.81677  0.34607  1.0000
  C   C99       1.0  0.26870  0.74657  0.34649  1.0000
  C   C100      1.0  0.25103  0.71100  0.34615  1.0000
  C   C101      1.0  0.26874  0.69332  0.34589  1.0000
  C   C102      1.0  0.30376  0.71157  0.34641  1.0000
  C   C103      1.0  0.30427  0.76426  0.34686  1.0000
  C   C104      1.0  0.25139  0.98789  0.34636  1.0000
  C   C105      1.0  0.26908  0.97000  0.34682  1.0000
  C   C106      1.0  0.25137  0.93461  0.34719  1.0000
  C   C107      1.0  0.30416  0.98831  0.34678  1.0000
  C   C108      1.0  0.26922  0.52357  0.34635  1.0000
  C   C109      1.0  0.30479  0.54146  0.34599  1.0000
  C   C110      1.0  0.30420  0.59362  0.34655  1.0000
  C   C111      1.0  0.26919  0.57681  0.34704  1.0000
  C   C112      1.0  0.25152  0.54143  0.34676  1.0000
  C   C113      1.0  0.26579  0.91398  0.35006  1.0000
  C   C114      1.0  0.26530  0.85271  0.34377  1.0000
  N   N29       1.0  0.26397  0.86709  0.42258  1.0000
  C   C115      1.0  0.26537  0.89691  0.43000  1.0000
  C   C116      1.0  0.26181  0.90592  0.51054  1.0000
  N   N30       1.0  0.25848  0.91385  0.58140  1.0000
  C   C117      1.0  0.25467  0.59733  0.34992  1.0000
  C   C118      1.0  0.25432  0.65830  0.34309  1.0000
  N   N31       1.0  0.25585  0.64400  0.42194  1.0000
  C   C119      1.0  0.25479  0.61434  0.42966  1.0000
  C   C120      1.0  0.25859  0.60557  0.51027  1.0000
  N   N32       1.0  0.26211  0.59781  0.58116  1.0000
  C   C121      1.0  0.49219  0.24705  0.34651  1.0000
  C   C122      1.0  0.47431  0.26474  0.34605  1.0000
  C   C123      1.0  0.43892  0.24704  0.34601  1.0000
  C   C124      1.0  0.42213  0.21201  0.34658  1.0000
  C   C125      1.0  0.43893  0.19380  0.34719  1.0000
  C   C126      1.0  0.47431  0.21149  0.34700  1.0000
  C   C127      1.0  0.49261  0.29983  0.34597  1.0000
  H   H19       1.0  0.39657  0.19923  0.34655  1.0000
  C   C128      1.0  0.49259  0.19468  0.34703  1.0000
  H   H20       1.0  0.48073  0.31334  0.34586  1.0000
  H   H21       1.0  0.48070  0.16928  0.34719  1.0000
  N   N33       1.0  0.37145  0.25981  0.27054  1.0000
  C   C129      1.0  0.40128  0.26121  0.26314  1.0000
  C   C130      1.0  0.41027  0.25764  0.18260  1.0000
  N   N34       1.0  0.41819  0.25431  0.11173  1.0000
  N   N35       1.0  0.40268  0.14447  0.27098  1.0000
  C   C131      1.0  0.37424  0.11465  0.26358  1.0000
  C   C132      1.0  0.36170  0.10578  0.18295  1.0000
  N   N36       1.0  0.35047  0.09796  0.11202  1.0000
  C   C133      1.0  0.32197  0.24659  0.34713  1.0000
  H   H22       1.0  0.31656  0.19881  0.34630  1.0000
  C   C134      1.0  0.32106  0.29935  0.34678  1.0000
  H   H23       1.0  0.34646  0.31286  0.34688  1.0000
  H   H24       1.0  0.31713  0.34217  0.34595  1.0000
  C   C135      1.0  0.32245  0.07685  0.34580  1.0000
  C   C136      1.0  0.32159  0.02317  0.34605  1.0000
  H   H25       1.0  0.31696  0.11918  0.34670  1.0000
  H   H26       1.0  0.34699  0.03507  0.34597  1.0000
  H   H27       1.0  0.31767  0.47642  0.34692  1.0000
  C   C137      1.0  0.35702  0.26104  0.34934  1.0000
  C   C138      1.0  0.41833  0.26148  0.34300  1.0000
  N   N37       1.0  0.40244  0.25982  0.42183  1.0000
  C   C139      1.0  0.37380  0.26082  0.42930  1.0000
  C   C140      1.0  0.36123  0.25707  0.50992  1.0000
  N   N38       1.0  0.34996  0.25359  0.58082  1.0000
  C   C141      1.0  0.41838  0.15875  0.34988  1.0000
  C   C142      1.0  0.35748  0.09749  0.34344  1.0000
  N   N39       1.0  0.37182  0.11330  0.42222  1.0000
  C   C143      1.0  0.40147  0.14193  0.42980  1.0000
  C   C144      1.0  0.41040  0.15448  0.51038  1.0000
  N   N40       1.0  0.41829  0.16575  0.58125  1.0000
  C   C145      1.0  0.49219  0.74705  0.34651  1.0000
  C   C146      1.0  0.47431  0.76474  0.34605  1.0000
  C   C147      1.0  0.43892  0.74704  0.34601  1.0000
  C   C148      1.0  0.42213  0.71201  0.34658  1.0000
  C   C149      1.0  0.43893  0.69380  0.34719  1.0000
  C   C150      1.0  0.47431  0.71149  0.34700  1.0000
  C   C151      1.0  0.49262  0.79983  0.34597  1.0000
  H   H28       1.0  0.39657  0.69922  0.34655  1.0000
  C   C152      1.0  0.49259  0.69468  0.34703  1.0000
  H   H29       1.0  0.48073  0.81334  0.34586  1.0000
  H   H30       1.0  0.48070  0.66928  0.34719  1.0000
  N   N41       1.0  0.37145  0.75981  0.27054  1.0000
  C   C153      1.0  0.40128  0.76121  0.26314  1.0000
  C   C154      1.0  0.41027  0.75764  0.18260  1.0000
  N   N42       1.0  0.41819  0.75431  0.11173  1.0000
  N   N43       1.0  0.40268  0.64446  0.27098  1.0000
  C   C155      1.0  0.37424  0.61464  0.26358  1.0000
  C   C156      1.0  0.36170  0.60579  0.18295  1.0000
  N   N44       1.0  0.35047  0.59796  0.11202  1.0000
  C   C157      1.0  0.32197  0.74659  0.34713  1.0000
  H   H31       1.0  0.31656  0.69880  0.34630  1.0000
  C   C158      1.0  0.32106  0.79935  0.34678  1.0000
  H   H32       1.0  0.34646  0.81286  0.34688  1.0000
  H   H33       1.0  0.31713  0.84217  0.34595  1.0000
  C   C159      1.0  0.32245  0.57685  0.34580  1.0000
  C   C160      1.0  0.32159  0.52317  0.34605  1.0000
  H   H34       1.0  0.31695  0.61918  0.34670  1.0000
  H   H35       1.0  0.34699  0.53507  0.34597  1.0000
  H   H36       1.0  0.31767  0.97642  0.34692  1.0000
  C   C161      1.0  0.35702  0.76104  0.34934  1.0000
  C   C162      1.0  0.41833  0.76148  0.34300  1.0000
  N   N45       1.0  0.40244  0.75982  0.42183  1.0000
  C   C163      1.0  0.37380  0.76081  0.42930  1.0000
  C   C164      1.0  0.36123  0.75707  0.50992  1.0000
  N   N46       1.0  0.34996  0.75359  0.58082  1.0000
  C   C165      1.0  0.41838  0.65874  0.34988  1.0000
  C   C166      1.0  0.35748  0.59749  0.34344  1.0000
  N   N47       1.0  0.37183  0.61330  0.42222  1.0000
  C   C167      1.0  0.40147  0.64192  0.42980  1.0000
  C   C168      1.0  0.41040  0.65448  0.51038  1.0000
  N   N48       1.0  0.41829  0.66575  0.58125  1.0000
  C   C169      1.0  0.52787  0.26488  0.34647  1.0000
  C   C170      1.0  0.54576  0.30045  0.34676  1.0000
  C   C171      1.0  0.58115  0.31811  0.34705  1.0000
  C   C172      1.0  0.59792  0.29987  0.34645  1.0000
  C   C173      1.0  0.58111  0.26485  0.34584  1.0000
  C   C174      1.0  0.54574  0.24718  0.34617  1.0000
  C   C175      1.0  0.52748  0.31725  0.34663  1.0000
  C   C176      1.0  0.52744  0.21210  0.34633  1.0000
  H   H37       1.0  0.62348  0.31263  0.34647  1.0000
  C   C177      1.0  0.99219  0.24705  0.34651  1.0000
  C   C178      1.0  0.97431  0.26474  0.34605  1.0000
  C   C179      1.0  0.93892  0.24704  0.34601  1.0000
  C   C180      1.0  0.92213  0.21201  0.34658  1.0000
  C   C181      1.0  0.93893  0.19380  0.34719  1.0000
  C   C182      1.0  0.97431  0.21149  0.34700  1.0000
  C   C183      1.0  0.99262  0.29983  0.34597  1.0000
  H   H38       1.0  0.89657  0.19923  0.34655  1.0000
  C   C184      1.0  0.99259  0.19468  0.34703  1.0000
  H   H39       1.0  0.98073  0.31334  0.34586  1.0000
  H   H40       1.0  0.53938  0.34265  0.34670  1.0000
  H   H41       1.0  0.98070  0.16928  0.34719  1.0000
  H   H42       1.0  0.53933  0.19859  0.34626  1.0000
  N   N49       1.0  0.64832  0.25158  0.27123  1.0000
  C   C185      1.0  0.61867  0.25056  0.26372  1.0000
  C   C186      1.0  0.60982  0.25426  0.18311  1.0000
  N   N50       1.0  0.60199  0.25770  0.11222  1.0000
  N   N51       1.0  0.76427  0.39822  0.27116  1.0000
  C   C187      1.0  0.76528  0.36958  0.26377  1.0000
  C   C188      1.0  0.76160  0.35704  0.18313  1.0000
  N   N52       1.0  0.75819  0.34579  0.11223  1.0000
  N   N53       1.0  0.61758  0.36756  0.27075  1.0000
  C   C189      1.0  0.64622  0.39720  0.26358  1.0000
  C   C190      1.0  0.65875  0.40623  0.18299  1.0000
  N   N54       1.0  0.67000  0.41420  0.11212  1.0000
  N   N55       1.0  0.87145  0.25981  0.27054  1.0000
  C   C191      1.0  0.90128  0.26121  0.26314  1.0000
  C   C192      1.0  0.91027  0.25764  0.18260  1.0000
  N   N56       1.0  0.91819  0.25431  0.11173  1.0000
  N   N57       1.0  0.75614  0.11307  0.27100  1.0000
  C   C193      1.0  0.75480  0.14152  0.26339  1.0000
  C   C194      1.0  0.75849  0.15407  0.18279  1.0000
  N   N58       1.0  0.76193  0.16532  0.11187  1.0000
  N   N59       1.0  0.90268  0.14447  0.27098  1.0000
  C   C195      1.0  0.87424  0.11465  0.26358  1.0000
  C   C196      1.0  0.86170  0.10578  0.18295  1.0000
  N   N60       1.0  0.85047  0.09796  0.11202  1.0000
  C   C197      1.0  0.75086  0.26440  0.34643  1.0000
  C   C198      1.0  0.71529  0.24672  0.34686  1.0000
  C   C199      1.0  0.69760  0.26441  0.34703  1.0000
  C   C200      1.0  0.71583  0.29944  0.34656  1.0000
  C   C201      1.0  0.75085  0.31766  0.34582  1.0000
  C   C202      1.0  0.76854  0.29997  0.34603  1.0000
  C   C203      1.0  0.69851  0.21163  0.34687  1.0000
  C   C204      1.0  0.80363  0.31677  0.34607  1.0000
  H   H43       1.0  0.70306  0.31222  0.34674  1.0000
  C   C205      1.0  0.76871  0.24657  0.34649  1.0000
  C   C206      1.0  0.75103  0.21100  0.34615  1.0000
  C   C207      1.0  0.76874  0.19332  0.34589  1.0000
  C   C208      1.0  0.80376  0.21157  0.34641  1.0000
  C   C209      1.0  0.82197  0.24659  0.34713  1.0000
  C   C210      1.0  0.80427  0.26426  0.34686  1.0000
  C   C211      1.0  0.71594  0.19420  0.34621  1.0000
  H   H44       1.0  0.81656  0.19881  0.34630  1.0000
  C   C212      1.0  0.82106  0.29935  0.34678  1.0000
  H   H45       1.0  0.70244  0.16880  0.34612  1.0000
  H   H46       1.0  0.67311  0.19812  0.34697  1.0000
  H   H47       1.0  0.84646  0.31286  0.34688  1.0000
  H   H48       1.0  0.81713  0.34217  0.34595  1.0000
  C   C213      1.0  0.75139  0.48788  0.34636  1.0000
  C   C214      1.0  0.76907  0.47000  0.34682  1.0000
  C   C215      1.0  0.75137  0.43461  0.34719  1.0000
  C   C216      1.0  0.71634  0.41783  0.34671  1.0000
  C   C217      1.0  0.69813  0.43464  0.34593  1.0000
  C   C218      1.0  0.71583  0.47001  0.34599  1.0000
  C   C219      1.0  0.80416  0.48831  0.34678  1.0000
  C   C220      1.0  0.69902  0.48829  0.34601  1.0000
  H   H49       1.0  0.70355  0.39227  0.34685  1.0000
  C   C221      1.0  0.76922  0.02357  0.34635  1.0000
  C   C222      1.0  0.80479  0.04146  0.34599  1.0000
  C   C223      1.0  0.82245  0.07685  0.34580  1.0000
  C   C224      1.0  0.80420  0.09363  0.34655  1.0000
  C   C225      1.0  0.76919  0.07681  0.34704  1.0000
  C   C226      1.0  0.75152  0.04143  0.34676  1.0000
  C   C227      1.0  0.82159  0.02317  0.34605  1.0000
  H   H50       1.0  0.81695  0.11918  0.34670  1.0000
  C   C228      1.0  0.71644  0.02314  0.34672  1.0000
  H   H51       1.0  0.84699  0.03507  0.34597  1.0000
  H   H52       1.0  0.81767  0.47642  0.34692  1.0000
  H   H53       1.0  0.70292  0.03502  0.34682  1.0000
  H   H54       1.0  0.67362  0.47640  0.34594  1.0000
  C   C229      1.0  0.66257  0.24996  0.35007  1.0000
  C   C230      1.0  0.60170  0.25039  0.34370  1.0000
  N   N61       1.0  0.61738  0.25167  0.42250  1.0000
  C   C231      1.0  0.64580  0.25025  0.42993  1.0000
  C   C232      1.0  0.65839  0.25393  0.51047  1.0000
  N   N62       1.0  0.66969  0.25736  0.58133  1.0000
  C   C233      1.0  0.76579  0.41398  0.35006  1.0000
  C   C234      1.0  0.76530  0.35271  0.34377  1.0000
  N   N63       1.0  0.76397  0.36709  0.42258  1.0000
  C   C235      1.0  0.76538  0.39691  0.43000  1.0000
  C   C236      1.0  0.76181  0.40592  0.51054  1.0000
  N   N64       1.0  0.75848  0.41385  0.58140  1.0000
  C   C237      1.0  0.60180  0.35314  0.34946  1.0000
  C   C238      1.0  0.66310  0.41408  0.34357  1.0000
  N   N65       1.0  0.64868  0.39821  0.42220  1.0000
  C   C239      1.0  0.61888  0.36976  0.42952  1.0000
  C   C240      1.0  0.60991  0.35718  0.51007  1.0000
  N   N66       1.0  0.60200  0.34590  0.58093  1.0000
  C   C241      1.0  0.85702  0.26104  0.34934  1.0000
  C   C242      1.0  0.91833  0.26148  0.34300  1.0000
  N   N67       1.0  0.90244  0.25982  0.42183  1.0000
  C   C243      1.0  0.87380  0.26082  0.42930  1.0000
  C   C244      1.0  0.86123  0.25707  0.50992  1.0000
  N   N68       1.0  0.84996  0.25359  0.58082  1.0000
  C   C245      1.0  0.75467  0.09733  0.34992  1.0000
  C   C246      1.0  0.75432  0.15830  0.34309  1.0000
  N   N69       1.0  0.75585  0.14400  0.42194  1.0000
  C   C247      1.0  0.75479  0.11434  0.42966  1.0000
  C   C248      1.0  0.75859  0.10557  0.51027  1.0000
  N   N70       1.0  0.76211  0.09781  0.58116  1.0000
  C   C249      1.0  0.91838  0.15875  0.34988  1.0000
  C   C250      1.0  0.85748  0.09749  0.34344  1.0000
  N   N71       1.0  0.87183  0.11330  0.42222  1.0000
  C   C251      1.0  0.90147  0.14193  0.42980  1.0000
  C   C252      1.0  0.91040  0.15448  0.51038  1.0000
  N   N72       1.0  0.91829  0.16575  0.58125  1.0000
  C   C253      1.0  0.52787  0.76488  0.34647  1.0000
  C   C254      1.0  0.54576  0.80045  0.34676  1.0000
  C   C255      1.0  0.58115  0.81811  0.34705  1.0000
  C   C256      1.0  0.59792  0.79987  0.34645  1.0000
  C   C257      1.0  0.58111  0.76485  0.34584  1.0000
  C   C258      1.0  0.54574  0.74718  0.34617  1.0000
  C   C259      1.0  0.52748  0.81725  0.34663  1.0000
  C   C260      1.0  0.52744  0.71210  0.34633  1.0000
  H   H55       1.0  0.62348  0.81262  0.34647  1.0000
  C   C261      1.0  0.99219  0.74705  0.34651  1.0000
  C   C262      1.0  0.97431  0.76474  0.34605  1.0000
  C   C263      1.0  0.93892  0.74704  0.34601  1.0000
  C   C264      1.0  0.92213  0.71201  0.34658  1.0000
  C   C265      1.0  0.93893  0.69380  0.34719  1.0000
  C   C266      1.0  0.97431  0.71149  0.34700  1.0000
  C   C267      1.0  0.99262  0.79983  0.34597  1.0000
  H   H56       1.0  0.89658  0.69922  0.34655  1.0000
  C   C268      1.0  0.99259  0.69468  0.34703  1.0000
  H   H57       1.0  0.98073  0.81334  0.34586  1.0000
  H   H58       1.0  0.53938  0.84265  0.34670  1.0000
  H   H59       1.0  0.98070  0.66928  0.34719  1.0000
  H   H60       1.0  0.53933  0.69858  0.34626  1.0000
  N   N73       1.0  0.64832  0.75158  0.27123  1.0000
  C   C269      1.0  0.61867  0.75056  0.26372  1.0000
  C   C270      1.0  0.60982  0.75426  0.18311  1.0000
  N   N74       1.0  0.60199  0.75770  0.11222  1.0000
  N   N75       1.0  0.76427  0.89822  0.27116  1.0000
  C   C271      1.0  0.76528  0.86958  0.26377  1.0000
  C   C272      1.0  0.76160  0.85704  0.18313  1.0000
  N   N76       1.0  0.75819  0.84579  0.11223  1.0000
  N   N77       1.0  0.61758  0.86756  0.27075  1.0000
  C   C273      1.0  0.64622  0.89720  0.26358  1.0000
  C   C274      1.0  0.65875  0.90623  0.18299  1.0000
  N   N78       1.0  0.67000  0.91420  0.11212  1.0000
  N   N79       1.0  0.87145  0.75981  0.27054  1.0000
  C   C275      1.0  0.90128  0.76121  0.26314  1.0000
  C   C276      1.0  0.91027  0.75764  0.18260  1.0000
  N   N80       1.0  0.91819  0.75431  0.11173  1.0000
  N   N81       1.0  0.75614  0.61307  0.27100  1.0000
  C   C277      1.0  0.75480  0.64152  0.26339  1.0000
  C   C278      1.0  0.75849  0.65407  0.18279  1.0000
  N   N82       1.0  0.76193  0.66532  0.11187  1.0000
  N   N83       1.0  0.90268  0.64446  0.27098  1.0000
  C   C279      1.0  0.87424  0.61464  0.26358  1.0000
  C   C280      1.0  0.86170  0.60579  0.18295  1.0000
  N   N84       1.0  0.85047  0.59796  0.11202  1.0000
  C   C281      1.0  0.75086  0.76440  0.34644  1.0000
  C   C282      1.0  0.71529  0.74672  0.34686  1.0000
  C   C283      1.0  0.69760  0.76441  0.34703  1.0000
  C   C284      1.0  0.71583  0.79944  0.34656  1.0000
  C   C285      1.0  0.75085  0.81766  0.34582  1.0000
  C   C286      1.0  0.76854  0.79997  0.34603  1.0000
  C   C287      1.0  0.69851  0.71163  0.34687  1.0000
  C   C288      1.0  0.80363  0.81677  0.34607  1.0000
  H   H61       1.0  0.70306  0.81222  0.34674  1.0000
  C   C289      1.0  0.76870  0.74657  0.34649  1.0000
  C   C290      1.0  0.75103  0.71100  0.34615  1.0000
  C   C291      1.0  0.76874  0.69332  0.34589  1.0000
  C   C292      1.0  0.80376  0.71157  0.34641  1.0000
  C   C293      1.0  0.82197  0.74659  0.34713  1.0000
  C   C294      1.0  0.80427  0.76426  0.34686  1.0000
  C   C295      1.0  0.71594  0.69420  0.34621  1.0000
  H   H62       1.0  0.81656  0.69880  0.34630  1.0000
  C   C296      1.0  0.82106  0.79935  0.34678  1.0000
  H   H63       1.0  0.70244  0.66880  0.34612  1.0000
  H   H64       1.0  0.67311  0.69812  0.34697  1.0000
  H   H65       1.0  0.84646  0.81286  0.34688  1.0000
  H   H66       1.0  0.81713  0.84217  0.34595  1.0000
  C   C297      1.0  0.75139  0.98789  0.34636  1.0000
  C   C298      1.0  0.76907  0.97000  0.34682  1.0000
  C   C299      1.0  0.75137  0.93461  0.34719  1.0000
  C   C300      1.0  0.71634  0.91783  0.34671  1.0000
  C   C301      1.0  0.69813  0.93464  0.34593  1.0000
  C   C302      1.0  0.71583  0.97001  0.34599  1.0000
  C   C303      1.0  0.80416  0.98831  0.34678  1.0000
  C   C304      1.0  0.69902  0.98829  0.34601  1.0000
  H   H67       1.0  0.70355  0.89227  0.34685  1.0000
  C   C305      1.0  0.76923  0.52357  0.34635  1.0000
  C   C306      1.0  0.80479  0.54146  0.34599  1.0000
  C   C307      1.0  0.82245  0.57685  0.34580  1.0000
  C   C308      1.0  0.80420  0.59362  0.34655  1.0000
  C   C309      1.0  0.76918  0.57681  0.34704  1.0000
  C   C310      1.0  0.75152  0.54143  0.34676  1.0000
  C   C311      1.0  0.82159  0.52317  0.34605  1.0000
  H   H68       1.0  0.81695  0.61918  0.34670  1.0000
  C   C312      1.0  0.71644  0.52314  0.34672  1.0000
  H   H69       1.0  0.84699  0.53507  0.34597  1.0000
  H   H70       1.0  0.81767  0.97642  0.34692  1.0000
  H   H71       1.0  0.70292  0.53502  0.34682  1.0000
  H   H72       1.0  0.67362  0.97640  0.34594  1.0000
  C   C313      1.0  0.66256  0.74996  0.35007  1.0000
  C   C314      1.0  0.60170  0.75039  0.34370  1.0000
  N   N85       1.0  0.61738  0.75166  0.42250  1.0000
  C   C315      1.0  0.64580  0.75025  0.42993  1.0000
  C   C316      1.0  0.65839  0.75393  0.51047  1.0000
  N   N86       1.0  0.66969  0.75736  0.58133  1.0000
  C   C317      1.0  0.76579  0.91398  0.35006  1.0000
  C   C318      1.0  0.76530  0.85271  0.34377  1.0000
  N   N87       1.0  0.76397  0.86709  0.42258  1.0000
  C   C319      1.0  0.76537  0.89691  0.43000  1.0000
  C   C320      1.0  0.76181  0.90592  0.51054  1.0000
  N   N88       1.0  0.75848  0.91385  0.58140  1.0000
  C   C321      1.0  0.60180  0.85314  0.34946  1.0000
  C   C322      1.0  0.66310  0.91408  0.34357  1.0000
  N   N89       1.0  0.64868  0.89821  0.42220  1.0000
  C   C323      1.0  0.61888  0.86976  0.42952  1.0000
  C   C324      1.0  0.60990  0.85717  0.51007  1.0000
  N   N90       1.0  0.60200  0.84590  0.58093  1.0000
  C   C325      1.0  0.85702  0.76104  0.34934  1.0000
  C   C326      1.0  0.91833  0.76148  0.34300  1.0000
  N   N91       1.0  0.90244  0.75982  0.42183  1.0000
  C   C327      1.0  0.87380  0.76081  0.42930  1.0000
  C   C328      1.0  0.86123  0.75707  0.50992  1.0000
  N   N92       1.0  0.84996  0.75359  0.58082  1.0000
  C   C329      1.0  0.75467  0.59733  0.34992  1.0000
  C   C330      1.0  0.75432  0.65830  0.34309  1.0000
  N   N93       1.0  0.75585  0.64400  0.42194  1.0000
  C   C331      1.0  0.75479  0.61434  0.42966  1.0000
  C   C332      1.0  0.75859  0.60557  0.51027  1.0000
  N   N94       1.0  0.76211  0.59781  0.58116  1.0000
  C   C333      1.0  0.91838  0.65874  0.34988  1.0000
  C   C334      1.0  0.85748  0.59749  0.34344  1.0000
  N   N95       1.0  0.87183  0.61330  0.42222  1.0000
  C   C335      1.0  0.90147  0.64192  0.42980  1.0000
  C   C336      1.0  0.91040  0.65448  0.51038  1.0000
  N   N96       1.0  0.91829  0.66575  0.58125  1.0000
