data_image0
_chemical_formula_structural       C4NC2NOHCOC4NC2NOHCOC4NC2NOHCOC4NC2NOHCOC2H2OCO2HC2H2OCO2HC2H2OCO2HC2H2OCO2HC2H2O2HC2H2O2HC2H2O2HC2H2O2HC4NC2NOHCOC4NC2NOHCOC4NC2NOHCOC4NC2NOHCOC4NC2NOHCOC4NC2NOHCOC4NC2NOHCOC4NC2NOHCOC2H2OCO2HC2H2OCO2HC2H2OCO2HC2H2OCO2HC2H2OCO2HC2H2OCO2HC2H2OCO2HC2H2OCO2HC2H2OCO2HC2H2OCO2HC6H3C6H3C6H3C6H3C6H3C6H3C6H3C6H3C6H3C6H3C6H3C6H3C6H3C6H3C6H3C6H3C6H3C6H3C6H3C6H3C2H2OHC2H2OHC2H2OHC2H2OHC4NC2NHC4NC2NHC4NC2NHC4NC2NHC4NC2NHCOC4NC2NHCOC4NC2NHCOC4NC2NHCOC2H2OHC2H2OHC2H2OHC2H2OHC2H2OHC2H2OHC2H2OHC2H2OHC4NC2NHC4NC2NHC4NC2NHC4NC2NHC4NC2NHC4NC2NHC4NC2NHC4NC2NHC4NC2NHC4NC2NH
_chemical_formula_sum              "C390 N60 O90 H180"
_cell_length_a       44.2718
_cell_length_b       44.2718
_cell_length_c       14.8444
_cell_angle_alpha    90
_cell_angle_beta     90
_cell_angle_gamma    90

_space_group_name_H-M_alt    "P 1"
_space_group_IT_number       1

loop_
  _space_group_symop_operation_xyz
  'x, y, z'

loop_
  _atom_site_type_symbol
  _atom_site_label
  _atom_site_symmetry_multiplicity
  _atom_site_fract_x
  _atom_site_fract_y
  _atom_site_fract_z
  _atom_site_occupancy
  C   C1        1.0  0.31424  0.03929  0.33822  1.0000
  C   C2        1.0  0.32895  0.04661  0.25639  1.0000
  C   C3        1.0  0.35999  0.05499  0.25492  1.0000
  C   C4        1.0  0.37617  0.05631  0.33766  1.0000
  N   N1        1.0  0.37269  0.06141  0.17283  1.0000
  C   C5        1.0  0.35695  0.06026  0.09408  1.0000
  C   C6        1.0  0.32610  0.05222  0.09569  1.0000
  N   N2        1.0  0.31369  0.04573  0.17700  1.0000
  O   O1        1.0  0.37130  0.06642  0.01555  1.0000
  H   H1        1.0  0.39393  0.06695  0.16899  1.0000
  C   C7        1.0  0.30851  0.05049  0.01846  1.0000
  O   O2        1.0  0.28904  0.03096  0.01444  1.0000
  C   C8        1.0  0.69673  0.97160  0.33744  1.0000
  C   C9        1.0  0.68215  0.96358  0.25600  1.0000
  C   C10       1.0  0.65114  0.95509  0.25479  1.0000
  C   C11       1.0  0.63486  0.95442  0.33743  1.0000
  N   N3        1.0  0.63856  0.94800  0.17302  1.0000
  C   C12       1.0  0.65439  0.94862  0.09437  1.0000
  C   C13       1.0  0.68520  0.95681  0.09569  1.0000
  N   N4        1.0  0.69749  0.96394  0.17670  1.0000
  O   O3        1.0  0.64015  0.94182  0.01613  1.0000
  H   H2        1.0  0.61734  0.94236  0.16938  1.0000
  C   C14       1.0  0.70282  0.95813  0.01837  1.0000
  O   O4        1.0  0.72223  0.97773  0.01409  1.0000
  C   C15       1.0  0.97143  0.31438  0.33822  1.0000
  C   C16       1.0  0.96399  0.32904  0.25643  1.0000
  C   C17       1.0  0.95554  0.36007  0.25498  1.0000
  C   C18       1.0  0.95426  0.37626  0.33770  1.0000
  N   N5        1.0  0.94902  0.37274  0.17291  1.0000
  C   C19       1.0  0.95012  0.35698  0.09419  1.0000
  C   C20       1.0  0.95822  0.32615  0.09578  1.0000
  N   N6        1.0  0.96482  0.31377  0.17706  1.0000
  O   O5        1.0  0.94386  0.37131  0.01569  1.0000
  H   H3        1.0  0.94342  0.39397  0.16909  1.0000
  C   C21       1.0  0.95993  0.30855  0.01857  1.0000
  O   O6        1.0  0.97947  0.28908  0.01447  1.0000
  C   C22       1.0  0.03916  0.69687  0.33776  1.0000
  C   C23       1.0  0.04703  0.68227  0.25622  1.0000
  C   C24       1.0  0.05543  0.65123  0.25495  1.0000
  C   C25       1.0  0.05615  0.63496  0.33760  1.0000
  N   N7        1.0  0.06240  0.63863  0.17313  1.0000
  C   C26       1.0  0.06172  0.65446  0.09447  1.0000
  C   C27       1.0  0.05363  0.68529  0.09586  1.0000
  N   N8        1.0  0.04662  0.69760  0.17692  1.0000
  O   O7        1.0  0.06835  0.64017  0.01615  1.0000
  H   H4        1.0  0.06796  0.61739  0.16944  1.0000
  C   C28       1.0  0.05220  0.70293  0.01865  1.0000
  O   O8        1.0  0.03277  0.72249  0.01409  1.0000
  C   C29       1.0  0.14912  0.54848  0.27048  1.0000
  C   C30       1.0  0.17971  0.54004  0.27045  1.0000
  H   H5        1.0  0.19000  0.53525  0.21036  1.0000
  H   H6        1.0  0.13783  0.54936  0.21029  1.0000
  O   O9        1.0  0.13904  0.56671  0.00699  1.0000
  C   C31       1.0  0.20173  0.55040  0.00468  1.0000
  O   O10       1.0  0.22120  0.53087  0.00884  1.0000
  O   O11       1.0  0.20658  0.57278  0.05247  1.0000
  H   H7        1.0  0.19618  0.58987  0.05079  1.0000
  C   C32       1.0  0.86066  0.46224  0.26874  1.0000
  C   C33       1.0  0.83009  0.47073  0.26927  1.0000
  H   H8        1.0  0.81966  0.47543  0.20936  1.0000
  H   H9        1.0  0.87181  0.46127  0.20833  1.0000
  O   O12       1.0  0.87174  0.44481  0.00537  1.0000
  C   C34       1.0  0.80909  0.46108  0.00425  1.0000
  O   O13       1.0  0.78983  0.48083  0.00816  1.0000
  O   O14       1.0  0.80393  0.43864  0.05140  1.0000
  H   H10       1.0  0.81423  0.42150  0.04968  1.0000
  C   C35       1.0  0.54821  0.86147  0.27047  1.0000
  C   C36       1.0  0.53970  0.83090  0.27046  1.0000
  H   H11       1.0  0.53484  0.82063  0.21039  1.0000
  H   H12       1.0  0.54904  0.87277  0.21029  1.0000
  O   O15       1.0  0.56705  0.87139  0.00676  1.0000
  C   C37       1.0  0.55060  0.80873  0.00451  1.0000
  O   O16       1.0  0.53106  0.78926  0.00880  1.0000
  O   O17       1.0  0.57299  0.80391  0.05226  1.0000
  H   H13       1.0  0.59009  0.81428  0.05044  1.0000
  C   C38       1.0  0.46206  0.14993  0.26881  1.0000
  C   C39       1.0  0.47047  0.18052  0.26938  1.0000
  H   H14       1.0  0.47515  0.19098  0.20948  1.0000
  H   H15       1.0  0.46109  0.13880  0.20837  1.0000
  O   O18       1.0  0.44480  0.13871  0.00547  1.0000
  C   C40       1.0  0.46094  0.20140  0.00443  1.0000
  O   O19       1.0  0.48067  0.22069  0.00833  1.0000
  O   O20       1.0  0.43850  0.20654  0.05159  1.0000
  H   H16       1.0  0.42137  0.19620  0.04990  1.0000
  C   C41       1.0  0.20460  0.09516  0.26436  1.0000
  C   C42       1.0  0.19288  0.12478  0.26228  1.0000
  H   H17       1.0  0.18812  0.13438  0.20131  1.0000
  H   H18       1.0  0.20850  0.08440  0.20439  1.0000
  O   O21       1.0  0.22107  0.08967  0.00174  1.0000
  O   O22       1.0  0.17082  0.14817  0.03030  1.0000
  H   H19       1.0  0.15871  0.13221  0.03027  1.0000
  C   C43       1.0  0.80652  0.91581  0.26467  1.0000
  C   C44       1.0  0.81817  0.88616  0.26276  1.0000
  H   H20       1.0  0.82309  0.87658  0.20184  1.0000
  H   H21       1.0  0.80288  0.92664  0.20467  1.0000
  O   O23       1.0  0.78871  0.92113  0.00158  1.0000
  O   O24       1.0  0.83902  0.86086  0.02853  1.0000
  H   H22       1.0  0.85209  0.87605  0.02760  1.0000
  C   C45       1.0  0.91549  0.20500  0.26438  1.0000
  C   C46       1.0  0.88585  0.19334  0.26221  1.0000
  H   H23       1.0  0.87619  0.18879  0.20119  1.0000
  H   H24       1.0  0.92621  0.20905  0.20443  1.0000
  O   O25       1.0  0.92120  0.22071  0.00197  1.0000
  O   O26       1.0  0.86291  0.17063  0.03078  1.0000
  H   H25       1.0  0.87899  0.15868  0.03090  1.0000
  C   C47       1.0  0.09499  0.80648  0.26447  1.0000
  C   C48       1.0  0.12463  0.81813  0.26238  1.0000
  H   H26       1.0  0.13423  0.82289  0.20140  1.0000
  H   H27       1.0  0.08418  0.80267  0.20452  1.0000
  O   O27       1.0  0.08964  0.78954  0.00168  1.0000
  O   O28       1.0  0.14852  0.83964  0.03010  1.0000
  H   H28       1.0  0.13269  0.85193  0.03002  1.0000
  C   C49       1.0  0.32097  0.64183  0.34601  1.0000
  C   C50       1.0  0.31823  0.62505  0.26509  1.0000
  C   C51       1.0  0.30633  0.59503  0.26430  1.0000
  C   C52       1.0  0.29758  0.58108  0.34689  1.0000
  N   N9        1.0  0.30292  0.58127  0.18214  1.0000
  C   C53       1.0  0.31077  0.59466  0.10295  1.0000
  C   C54       1.0  0.32295  0.62412  0.10395  1.0000
  N   N10       1.0  0.32583  0.63790  0.18513  1.0000
  O   O29       1.0  0.30624  0.57966  0.02451  1.0000
  H   H29       1.0  0.29466  0.56092  0.17863  1.0000
  C   C55       1.0  0.33149  0.63924  0.02614  1.0000
  O   O30       1.0  0.32776  0.66656  0.02278  1.0000
  C   C56       1.0  0.68937  0.36898  0.34620  1.0000
  C   C57       1.0  0.69209  0.38572  0.26522  1.0000
  C   C58       1.0  0.70385  0.41580  0.26436  1.0000
  C   C59       1.0  0.71246  0.42988  0.34688  1.0000
  N   N11       1.0  0.70721  0.42953  0.18214  1.0000
  C   C60       1.0  0.69946  0.41606  0.10299  1.0000
  C   C61       1.0  0.68744  0.38654  0.10405  1.0000
  N   N12       1.0  0.68458  0.37279  0.18530  1.0000
  O   O31       1.0  0.70391  0.43106  0.02450  1.0000
  H   H30       1.0  0.71535  0.44993  0.17860  1.0000
  C   C62       1.0  0.67896  0.37141  0.02616  1.0000
  O   O32       1.0  0.68300  0.34411  0.02344  1.0000
  C   C63       1.0  0.64163  0.68976  0.34610  1.0000
  C   C64       1.0  0.62485  0.69241  0.26516  1.0000
  C   C65       1.0  0.59481  0.70426  0.26429  1.0000
  C   C66       1.0  0.58079  0.71301  0.34678  1.0000
  N   N13       1.0  0.58106  0.70759  0.18208  1.0000
  C   C67       1.0  0.59448  0.69973  0.10295  1.0000
  C   C68       1.0  0.62395  0.68760  0.10404  1.0000
  N   N14       1.0  0.63773  0.68479  0.18525  1.0000
  O   O33       1.0  0.57948  0.70420  0.02447  1.0000
  H   H31       1.0  0.56070  0.71581  0.17852  1.0000
  C   C69       1.0  0.63911  0.67904  0.02629  1.0000
  O   O34       1.0  0.66644  0.68271  0.02305  1.0000
  C   C70       1.0  0.36871  0.32133  0.34616  1.0000
  C   C71       1.0  0.38549  0.31862  0.26524  1.0000
  C   C72       1.0  0.41555  0.30682  0.26446  1.0000
  C   C73       1.0  0.42958  0.29815  0.34701  1.0000
  N   N15       1.0  0.42932  0.30345  0.18229  1.0000
  C   C74       1.0  0.41589  0.31123  0.10310  1.0000
  C   C75       1.0  0.38639  0.32331  0.10410  1.0000
  N   N16       1.0  0.37261  0.32616  0.18528  1.0000
  O   O35       1.0  0.43090  0.30674  0.02466  1.0000
  H   H32       1.0  0.44969  0.29527  0.17879  1.0000
  C   C76       1.0  0.37124  0.33178  0.02628  1.0000
  O   O36       1.0  0.34393  0.32794  0.02293  1.0000
  C   C77       1.0  0.21645  0.90449  0.33819  1.0000
  C   C78       1.0  0.21797  0.92087  0.25631  1.0000
  C   C79       1.0  0.22439  0.95252  0.25436  1.0000
  C   C80       1.0  0.22887  0.96845  0.33683  1.0000
  N   N17       1.0  0.22636  0.96608  0.17149  1.0000
  C   C81       1.0  0.22224  0.95087  0.09265  1.0000
  C   C82       1.0  0.21572  0.91969  0.09491  1.0000
  N   N18       1.0  0.21398  0.90625  0.17679  1.0000
  O   O37       1.0  0.22478  0.96585  0.01340  1.0000
  H   H33       1.0  0.23079  0.98757  0.16723  1.0000
  C   C83       1.0  0.21094  0.90269  0.01779  1.0000
  O   O38       1.0  0.22124  0.87708  0.01549  1.0000
  C   C84       1.0  0.79433  0.10648  0.33807  1.0000
  C   C85       1.0  0.79271  0.09015  0.25612  1.0000
  C   C86       1.0  0.78636  0.05849  0.25409  1.0000
  C   C87       1.0  0.78206  0.04250  0.33652  1.0000
  N   N19       1.0  0.78433  0.04496  0.17118  1.0000
  C   C88       1.0  0.78831  0.06022  0.09236  1.0000
  C   C89       1.0  0.79472  0.09143  0.09470  1.0000
  N   N20       1.0  0.79656  0.10482  0.17662  1.0000
  O   O39       1.0  0.78578  0.04527  0.01307  1.0000
  H   H34       1.0  0.77998  0.02345  0.16687  1.0000
  C   C90       1.0  0.79943  0.10841  0.01749  1.0000
  O   O40       1.0  0.78849  0.13377  0.01563  1.0000
  C   C91       1.0  0.10622  0.21646  0.33822  1.0000
  C   C92       1.0  0.08984  0.21797  0.25635  1.0000
  C   C93       1.0  0.05820  0.22444  0.25441  1.0000
  C   C94       1.0  0.04228  0.22897  0.33687  1.0000
  N   N21       1.0  0.04463  0.22640  0.17155  1.0000
  C   C95       1.0  0.05982  0.22223  0.09271  1.0000
  C   C96       1.0  0.09100  0.21566  0.09495  1.0000
  N   N22       1.0  0.10444  0.21393  0.17682  1.0000
  O   O41       1.0  0.04484  0.22477  0.01346  1.0000
  H   H35       1.0  0.02314  0.23086  0.16730  1.0000
  C   C97       1.0  0.10798  0.21085  0.01782  1.0000
  O   O42       1.0  0.13362  0.22109  0.01552  1.0000
  C   C98       1.0  0.90428  0.79435  0.33830  1.0000
  C   C99       1.0  0.92059  0.79273  0.25633  1.0000
  C   C100      1.0  0.95226  0.78642  0.25428  1.0000
  C   C101      1.0  0.96828  0.78219  0.33670  1.0000
  N   N23       1.0  0.96578  0.78438  0.17135  1.0000
  C   C102      1.0  0.95050  0.78831  0.09255  1.0000
  C   C103      1.0  0.91929  0.79468  0.09490  1.0000
  N   N24       1.0  0.90590  0.79654  0.17683  1.0000
  O   O43       1.0  0.96545  0.78578  0.01324  1.0000
  H   H36       1.0  0.98730  0.78006  0.16704  1.0000
  C   C104      1.0  0.90229  0.79935  0.01770  1.0000
  O   O44       1.0  0.87695  0.78839  0.01588  1.0000
  C   C105      1.0  0.28258  0.45157  0.26902  1.0000
  C   C106      1.0  0.28870  0.42029  0.26822  1.0000
  H   H37       1.0  0.28890  0.40916  0.20784  1.0000
  H   H38       1.0  0.27813  0.46208  0.20901  1.0000
  O   O45       1.0  0.28748  0.46598  0.00682  1.0000
  C   C107      1.0  0.30081  0.40282  0.00263  1.0000
  O   O46       1.0  0.28968  0.37760  0.00650  1.0000
  O   O47       1.0  0.32423  0.40594  0.04712  1.0000
  H   H39       1.0  0.33606  0.42208  0.04600  1.0000
  C   C108      1.0  0.72734  0.55933  0.26929  1.0000
  C   C109      1.0  0.72127  0.59062  0.26845  1.0000
  H   H40       1.0  0.72097  0.60172  0.20802  1.0000
  H   H41       1.0  0.73164  0.54877  0.20926  1.0000
  O   O48       1.0  0.72305  0.54512  0.00723  1.0000
  C   C110      1.0  0.70988  0.60826  0.00309  1.0000
  O   O49       1.0  0.72161  0.63322  0.00653  1.0000
  O   O50       1.0  0.68614  0.60580  0.04627  1.0000
  H   H42       1.0  0.67402  0.58988  0.04498  1.0000
  C   C111      1.0  0.45130  0.72801  0.26890  1.0000
  C   C112      1.0  0.42003  0.72185  0.26809  1.0000
  H   H43       1.0  0.40889  0.72168  0.20771  1.0000
  H   H44       1.0  0.46180  0.73251  0.20891  1.0000
  O   O51       1.0  0.46574  0.72296  0.00668  1.0000
  C   C113      1.0  0.40259  0.70957  0.00248  1.0000
  O   O52       1.0  0.37734  0.72064  0.00635  1.0000
  O   O53       1.0  0.40577  0.68618  0.04707  1.0000
  H   H45       1.0  0.42194  0.67438  0.04594  1.0000
  C   C114      1.0  0.55903  0.28325  0.26946  1.0000
  C   C115      1.0  0.59033  0.28929  0.26861  1.0000
  H   H46       1.0  0.60142  0.28959  0.20817  1.0000
  H   H47       1.0  0.54847  0.27896  0.20943  1.0000
  O   O54       1.0  0.54484  0.28751  0.00741  1.0000
  C   C116      1.0  0.60799  0.30064  0.00325  1.0000
  O   O55       1.0  0.63293  0.28887  0.00670  1.0000
  O   O56       1.0  0.60557  0.32440  0.04636  1.0000
  H   H48       1.0  0.58966  0.33654  0.04506  1.0000
  C   C117      1.0  0.22784  0.26033  0.26617  1.0000
  C   C118      1.0  0.25044  0.28282  0.26704  1.0000
  H   H49       1.0  0.26055  0.28864  0.20753  1.0000
  H   H50       1.0  0.22224  0.25059  0.20586  1.0000
  O   O57       1.0  0.20662  0.25922  0.00127  1.0000
  C   C119      1.0  0.25239  0.30468  0.00137  1.0000
  O   O58       1.0  0.27948  0.30942  0.00796  1.0000
  O   O59       1.0  0.23621  0.32120  0.04812  1.0000
  H   H51       1.0  0.21624  0.32203  0.04522  1.0000
  C   C120      1.0  0.78265  0.75053  0.26656  1.0000
  C   C121      1.0  0.76003  0.72806  0.26736  1.0000
  H   H52       1.0  0.74993  0.72225  0.20781  1.0000
  H   H53       1.0  0.78830  0.76024  0.20625  1.0000
  O   O60       1.0  0.80375  0.75160  0.00171  1.0000
  C   C122      1.0  0.75793  0.70625  0.00183  1.0000
  O   O61       1.0  0.73078  0.70173  0.00781  1.0000
  O   O62       1.0  0.77395  0.68930  0.04759  1.0000
  H   H54       1.0  0.79391  0.68836  0.04469  1.0000
  C   C123      1.0  0.75035  0.22812  0.26621  1.0000
  C   C124      1.0  0.72786  0.25072  0.26715  1.0000
  H   H55       1.0  0.72207  0.26088  0.20767  1.0000
  H   H56       1.0  0.76011  0.22256  0.20590  1.0000
  O   O63       1.0  0.75136  0.20667  0.00119  1.0000
  C   C125      1.0  0.70592  0.25247  0.00145  1.0000
  O   O64       1.0  0.70119  0.27955  0.00814  1.0000
  O   O65       1.0  0.68943  0.23626  0.04820  1.0000
  H   H57       1.0  0.68860  0.21629  0.04521  1.0000
  C   C126      1.0  0.26018  0.78283  0.26617  1.0000
  C   C127      1.0  0.28263  0.76019  0.26700  1.0000
  H   H58       1.0  0.28843  0.75008  0.20746  1.0000
  H   H59       1.0  0.25045  0.78846  0.20588  1.0000
  O   O66       1.0  0.25912  0.80396  0.00131  1.0000
  C   C128      1.0  0.30450  0.75811  0.00132  1.0000
  O   O67       1.0  0.30916  0.73100  0.00787  1.0000
  O   O68       1.0  0.32108  0.77424  0.04802  1.0000
  H   H60       1.0  0.32195  0.79421  0.04513  1.0000
  C   C129      1.0  0.51911  0.99628  0.26817  1.0000
  C   C130      1.0  0.49674  0.01872  0.26667  1.0000
  H   H61       1.0  0.49055  0.02795  0.20622  1.0000
  H   H62       1.0  0.52861  0.98960  0.20846  1.0000
  O   O69       1.0  0.51987  0.97953  0.00657  1.0000
  C   C131      1.0  0.47374  0.02494  0.00127  1.0000
  O   O70       1.0  0.46703  0.05172  0.00335  1.0000
  O   O71       1.0  0.45798  0.00861  0.04994  1.0000
  H   H63       1.0  0.45828  0.98860  0.05011  1.0000
  C   C132      1.0  0.01431  0.51918  0.26824  1.0000
  C   C133      1.0  0.99188  0.49680  0.26673  1.0000
  H   H64       1.0  0.98269  0.49057  0.20625  1.0000
  H   H65       1.0  0.02102  0.52865  0.20853  1.0000
  O   O72       1.0  0.03092  0.52004  0.00670  1.0000
  C   C134      1.0  0.98554  0.47395  0.00150  1.0000
  O   O73       1.0  0.95869  0.46747  0.00306  1.0000
  O   O74       1.0  0.00176  0.45791  0.04954  1.0000
  H   H66       1.0  0.02176  0.45813  0.04971  1.0000
  C   C135      1.0  0.28272  0.03386  0.34122  1.0000
  C   C136      1.0  0.26276  0.05865  0.34270  1.0000
  C   C137      1.0  0.23113  0.05448  0.34298  1.0000
  C   C138      1.0  0.21964  0.02449  0.34102  1.0000
  C   C139      1.0  0.23936  0.99909  0.33973  1.0000
  C   C140      1.0  0.27090  0.00427  0.33990  1.0000
  H   H67       1.0  0.19677  0.02113  0.34110  1.0000
  H   H68       1.0  0.28551  0.98630  0.33792  1.0000
  H   H69       1.0  0.27147  0.08013  0.34358  1.0000
  C   C141      1.0  0.72824  0.97707  0.34045  1.0000
  C   C142      1.0  0.74820  0.95229  0.34204  1.0000
  C   C143      1.0  0.77982  0.95647  0.34265  1.0000
  C   C144      1.0  0.79131  0.98646  0.34085  1.0000
  C   C145      1.0  0.77159  0.01185  0.33941  1.0000
  C   C146      1.0  0.74004  0.00666  0.33937  1.0000
  H   H70       1.0  0.81418  0.98982  0.34121  1.0000
  H   H71       1.0  0.72543  0.02462  0.33733  1.0000
  H   H72       1.0  0.73950  0.93080  0.34290  1.0000
  C   C147      1.0  0.97688  0.28286  0.34129  1.0000
  C   C148      1.0  0.95209  0.26290  0.34280  1.0000
  C   C149      1.0  0.95626  0.23127  0.34307  1.0000
  C   C150      1.0  0.98624  0.21978  0.34114  1.0000
  C   C151      1.0  0.01165  0.23948  0.33981  1.0000
  C   C152      1.0  0.00647  0.27104  0.33996  1.0000
  H   H73       1.0  0.98960  0.19690  0.34125  1.0000
  H   H74       1.0  0.02444  0.28564  0.33794  1.0000
  H   H75       1.0  0.93061  0.27161  0.34368  1.0000
  C   C153      1.0  0.03371  0.72838  0.34076  1.0000
  C   C154      1.0  0.05849  0.74835  0.34229  1.0000
  C   C155      1.0  0.05431  0.77997  0.34282  1.0000
  C   C156      1.0  0.02431  0.79145  0.34099  1.0000
  C   C157      1.0  0.99893  0.77173  0.33958  1.0000
  C   C158      1.0  0.00411  0.74018  0.33960  1.0000
  H   H76       1.0  0.02094  0.81432  0.34125  1.0000
  H   H77       1.0  0.98615  0.72557  0.33760  1.0000
  H   H78       1.0  0.07998  0.73964  0.34315  1.0000
  C   C159      1.0  0.22774  0.53359  0.34872  1.0000
  C   C160      1.0  0.24765  0.55842  0.34912  1.0000
  C   C161      1.0  0.27929  0.55435  0.34882  1.0000
  C   C162      1.0  0.29083  0.52436  0.34819  1.0000
  C   C163      1.0  0.27118  0.49890  0.34795  1.0000
  C   C164      1.0  0.23962  0.50402  0.34810  1.0000
  H   H79       1.0  0.31371  0.52105  0.34816  1.0000
  H   H80       1.0  0.22504  0.48602  0.34907  1.0000
  H   H81       1.0  0.23889  0.57989  0.34934  1.0000
  C   C165      1.0  0.78228  0.47736  0.34843  1.0000
  C   C166      1.0  0.76237  0.45253  0.34882  1.0000
  C   C167      1.0  0.73073  0.45660  0.34884  1.0000
  C   C168      1.0  0.71919  0.48659  0.34845  1.0000
  C   C169      1.0  0.73884  0.51205  0.34820  1.0000
  C   C170      1.0  0.77040  0.50693  0.34810  1.0000
  H   H82       1.0  0.69632  0.48990  0.34859  1.0000
  H   H83       1.0  0.78498  0.52492  0.34899  1.0000
  H   H84       1.0  0.77114  0.43106  0.34881  1.0000
  C   C171      1.0  0.53331  0.78285  0.34865  1.0000
  C   C172      1.0  0.55814  0.76293  0.34901  1.0000
  C   C173      1.0  0.55407  0.73130  0.34867  1.0000
  C   C174      1.0  0.52408  0.71976  0.34805  1.0000
  C   C175      1.0  0.49862  0.73940  0.34779  1.0000
  C   C176      1.0  0.50374  0.77097  0.34797  1.0000
  H   H85       1.0  0.52078  0.69688  0.34802  1.0000
  H   H86       1.0  0.48574  0.78554  0.34897  1.0000
  H   H87       1.0  0.57961  0.77170  0.34924  1.0000
  C   C177      1.0  0.47706  0.22833  0.34864  1.0000
  C   C178      1.0  0.45223  0.24823  0.34903  1.0000
  C   C179      1.0  0.45630  0.27987  0.34901  1.0000
  C   C180      1.0  0.48629  0.29141  0.34863  1.0000
  C   C181      1.0  0.51175  0.27176  0.34840  1.0000
  C   C182      1.0  0.50663  0.24020  0.34831  1.0000
  H   H88       1.0  0.48960  0.31429  0.34874  1.0000
  H   H89       1.0  0.52463  0.22562  0.34915  1.0000
  H   H90       1.0  0.43076  0.23946  0.34900  1.0000
  C   C183      1.0  0.19119  0.22715  0.34176  1.0000
  C   C184      1.0  0.20050  0.19652  0.34038  1.0000
  C   C185      1.0  0.17931  0.17253  0.33817  1.0000
  C   C186      1.0  0.14814  0.17966  0.33781  1.0000
  C   C187      1.0  0.13795  0.20998  0.34027  1.0000
  C   C188      1.0  0.15976  0.23345  0.34226  1.0000
  H   H91       1.0  0.13262  0.16248  0.33703  1.0000
  H   H92       1.0  0.15266  0.25546  0.34373  1.0000
  H   H93       1.0  0.22311  0.19159  0.34204  1.0000
  C   C189      1.0  0.81930  0.78368  0.34224  1.0000
  C   C190      1.0  0.81003  0.81433  0.34104  1.0000
  C   C191      1.0  0.83125  0.83830  0.33873  1.0000
  C   C192      1.0  0.86240  0.83114  0.33811  1.0000
  C   C193      1.0  0.87256  0.80081  0.34049  1.0000
  C   C194      1.0  0.85073  0.77736  0.34251  1.0000
  H   H94       1.0  0.87794  0.84831  0.33730  1.0000
  H   H95       1.0  0.85781  0.75534  0.34389  1.0000
  H   H96       1.0  0.78743  0.81929  0.34280  1.0000
  C   C195      1.0  0.78352  0.19143  0.34169  1.0000
  C   C196      1.0  0.81414  0.20077  0.34027  1.0000
  C   C197      1.0  0.83816  0.17961  0.33809  1.0000
  C   C198      1.0  0.83106  0.14843  0.33776  1.0000
  C   C199      1.0  0.80075  0.13821  0.34020  1.0000
  C   C200      1.0  0.77726  0.16000  0.34216  1.0000
  H   H97       1.0  0.84825  0.13293  0.33704  1.0000
  H   H98       1.0  0.75525  0.15287  0.34362  1.0000
  H   H99       1.0  0.81906  0.22339  0.34199  1.0000
  C   C201      1.0  0.22707  0.81951  0.34184  1.0000
  C   C202      1.0  0.19642  0.81024  0.34044  1.0000
  C   C203      1.0  0.17246  0.83146  0.33819  1.0000
  C   C204      1.0  0.17963  0.86262  0.33779  1.0000
  C   C205      1.0  0.20996  0.87277  0.34026  1.0000
  C   C206      1.0  0.23340  0.85093  0.34226  1.0000
  H   H100      1.0  0.16246  0.87816  0.33702  1.0000
  H   H101      1.0  0.25543  0.85801  0.34375  1.0000
  H   H102      1.0  0.19145  0.78764  0.34217  1.0000
  C   C207      1.0  0.31889  0.72731  0.34687  1.0000
  C   C208      1.0  0.30961  0.69666  0.34681  1.0000
  C   C209      1.0  0.33082  0.67267  0.34679  1.0000
  C   C210      1.0  0.36199  0.67983  0.34623  1.0000
  C   C211      1.0  0.37218  0.71016  0.34629  1.0000
  C   C212      1.0  0.35032  0.73362  0.34705  1.0000
  H   H103      1.0  0.37752  0.66266  0.34633  1.0000
  H   H104      1.0  0.35741  0.75565  0.34785  1.0000
  H   H105      1.0  0.28700  0.69171  0.34694  1.0000
  C   C213      1.0  0.69155  0.28350  0.34719  1.0000
  C   C214      1.0  0.70081  0.31416  0.34704  1.0000
  C   C215      1.0  0.67958  0.33814  0.34710  1.0000
  C   C216      1.0  0.64842  0.33096  0.34665  1.0000
  C   C217      1.0  0.63825  0.30062  0.34678  1.0000
  C   C218      1.0  0.66012  0.27717  0.34753  1.0000
  H   H106      1.0  0.63288  0.34812  0.34674  1.0000
  H   H107      1.0  0.65304  0.25515  0.34837  1.0000
  H   H108      1.0  0.72342  0.31913  0.34705  1.0000
  C   C219      1.0  0.72712  0.69183  0.34724  1.0000
  C   C220      1.0  0.69647  0.70112  0.34707  1.0000
  C   C221      1.0  0.67246  0.67992  0.34699  1.0000
  C   C222      1.0  0.67961  0.64876  0.34645  1.0000
  C   C223      1.0  0.70993  0.63855  0.34664  1.0000
  C   C224      1.0  0.73341  0.66039  0.34749  1.0000
  H   H109      1.0  0.66243  0.63323  0.34647  1.0000
  H   H110      1.0  0.75543  0.65328  0.34837  1.0000
  H   H111      1.0  0.69153  0.72374  0.34715  1.0000
  C   C225      1.0  0.28324  0.31913  0.34699  1.0000
  C   C226      1.0  0.31390  0.30989  0.34695  1.0000
  C   C227      1.0  0.33787  0.33112  0.34697  1.0000
  C   C228      1.0  0.33067  0.36228  0.34641  1.0000
  C   C229      1.0  0.30033  0.37244  0.34644  1.0000
  C   C230      1.0  0.27689  0.35056  0.34717  1.0000
  H   H112      1.0  0.34783  0.37783  0.34651  1.0000
  H   H113      1.0  0.25486  0.35763  0.34795  1.0000
  H   H114      1.0  0.31887  0.28728  0.34706  1.0000
  C   C231      1.0  0.44604  0.10416  0.34498  1.0000
  C   C232      1.0  0.41527  0.09570  0.34293  1.0000
  C   C233      1.0  0.40695  0.06488  0.34154  1.0000
  C   C234      1.0  0.42965  0.04252  0.34247  1.0000
  C   C235      1.0  0.46042  0.05078  0.34395  1.0000
  C   C236      1.0  0.46852  0.08158  0.34525  1.0000
  H   H115      1.0  0.42376  0.02012  0.34162  1.0000
  H   H116      1.0  0.49088  0.08758  0.34792  1.0000
  H   H117      1.0  0.39886  0.11204  0.34279  1.0000
  C   C237      1.0  0.56473  0.90695  0.34731  1.0000
  C   C238      1.0  0.59553  0.91523  0.34360  1.0000
  C   C239      1.0  0.60404  0.94600  0.34173  1.0000
  C   C240      1.0  0.58149  0.96850  0.34358  1.0000
  C   C241      1.0  0.55068  0.96045  0.34740  1.0000
  C   C242      1.0  0.54241  0.92969  0.34926  1.0000
  H   H118      1.0  0.58752  0.99086  0.34233  1.0000
  H   H119      1.0  0.52003  0.92382  0.35272  1.0000
  H   H120      1.0  0.61184  0.89880  0.34261  1.0000
  C   C243      1.0  0.90639  0.44614  0.34498  1.0000
  C   C244      1.0  0.91486  0.41537  0.34292  1.0000
  C   C245      1.0  0.94567  0.40704  0.34158  1.0000
  C   C246      1.0  0.96803  0.42974  0.34255  1.0000
  C   C247      1.0  0.95978  0.46051  0.34399  1.0000
  C   C248      1.0  0.92898  0.46862  0.34527  1.0000
  H   H121      1.0  0.99044  0.42385  0.34170  1.0000
  H   H122      1.0  0.92298  0.49098  0.34792  1.0000
  H   H123      1.0  0.89852  0.39896  0.34276  1.0000
  C   C249      1.0  0.10360  0.56483  0.34740  1.0000
  C   C250      1.0  0.09532  0.59562  0.34369  1.0000
  C   C251      1.0  0.06456  0.60414  0.34185  1.0000
  C   C252      1.0  0.04205  0.58159  0.34372  1.0000
  C   C253      1.0  0.05009  0.55078  0.34752  1.0000
  C   C254      1.0  0.08086  0.54250  0.34937  1.0000
  H   H124      1.0  0.01969  0.58762  0.34248  1.0000
  H   H125      1.0  0.08672  0.52012  0.35280  1.0000
  H   H126      1.0  0.11176  0.61193  0.34271  1.0000
  C   C255      1.0  0.36142  0.04871  0.41898  1.0000
  C   C256      1.0  0.33080  0.04041  0.41928  1.0000
  H   H127      1.0  0.32053  0.03569  0.47946  1.0000
  H   H128      1.0  0.37276  0.04962  0.47909  1.0000
  O   O75       1.0  0.30353  0.07295  0.63780  1.0000
  H   H129      1.0  0.31394  0.09003  0.63945  1.0000
  C   C257      1.0  0.64949  0.96272  0.41833  1.0000
  C   C258      1.0  0.68009  0.97110  0.41840  1.0000
  H   H130      1.0  0.69029  0.97625  0.47840  1.0000
  H   H131      1.0  0.63808  0.96229  0.47838  1.0000
  O   O76       1.0  0.70786  0.93551  0.63857  1.0000
  H   H132      1.0  0.69752  0.91840  0.64096  1.0000
  C   C259      1.0  0.96198  0.36155  0.41897  1.0000
  C   C260      1.0  0.97036  0.33095  0.41927  1.0000
  H   H133      1.0  0.97512  0.32070  0.47945  1.0000
  H   H134      1.0  0.96110  0.37290  0.47908  1.0000
  O   O77       1.0  0.93746  0.30357  0.63793  1.0000
  H   H135      1.0  0.92037  0.31396  0.63966  1.0000
  C   C261      1.0  0.04797  0.64961  0.41857  1.0000
  C   C262      1.0  0.03968  0.68023  0.41872  1.0000
  H   H136      1.0  0.03460  0.69044  0.47873  1.0000
  H   H137      1.0  0.04844  0.63821  0.47861  1.0000
  O   O78       1.0  0.07473  0.70767  0.63803  1.0000
  H   H138      1.0  0.09178  0.69724  0.64023  1.0000
  C   C263      1.0  0.19621  0.53897  0.35161  1.0000
  C   C264      1.0  0.18147  0.54642  0.43329  1.0000
  C   C265      1.0  0.15046  0.55492  0.43449  1.0000
  C   C266      1.0  0.13435  0.55622  0.35163  1.0000
  N   N25       1.0  0.13773  0.56152  0.51643  1.0000
  C   C267      1.0  0.15342  0.56038  0.59528  1.0000
  C   C268      1.0  0.18423  0.55218  0.59397  1.0000
  N   N26       1.0  0.19667  0.54555  0.51281  1.0000
  H   H139      1.0  0.11652  0.56719  0.52003  1.0000
  C   C269      1.0  0.81380  0.47196  0.35079  1.0000
  C   C270      1.0  0.82872  0.46463  0.43226  1.0000
  C   C271      1.0  0.85973  0.45611  0.43291  1.0000
  C   C272      1.0  0.87561  0.45462  0.34967  1.0000
  N   N27       1.0  0.87267  0.44970  0.51469  1.0000
  C   C273      1.0  0.85718  0.45102  0.59387  1.0000
  C   C274      1.0  0.82638  0.45923  0.59310  1.0000
  N   N28       1.0  0.81373  0.46567  0.51208  1.0000
  H   H140      1.0  0.89388  0.44402  0.51793  1.0000
  C   C275      1.0  0.53871  0.81438  0.35160  1.0000
  C   C276      1.0  0.54633  0.82907  0.43321  1.0000
  C   C277      1.0  0.55490  0.86006  0.43439  1.0000
  C   C278      1.0  0.55611  0.87619  0.35155  1.0000
  N   N29       1.0  0.56163  0.87275  0.51628  1.0000
  C   C279      1.0  0.56058  0.85704  0.59510  1.0000
  C   C280      1.0  0.55232  0.82625  0.59382  1.0000
  N   N30       1.0  0.54554  0.81385  0.51270  1.0000
  H   H141      1.0  0.56736  0.89395  0.51987  1.0000
  C   C281      1.0  0.47170  0.19680  0.35093  1.0000
  C   C282      1.0  0.46444  0.18184  0.43238  1.0000
  C   C283      1.0  0.45599  0.15081  0.43300  1.0000
  C   C284      1.0  0.45450  0.13495  0.34974  1.0000
  N   N31       1.0  0.44963  0.13784  0.51477  1.0000
  C   C285      1.0  0.45095  0.15331  0.59399  1.0000
  C   C286      1.0  0.45910  0.18413  0.59325  1.0000
  N   N32       1.0  0.46548  0.19681  0.51223  1.0000
  H   H142      1.0  0.44400  0.11661  0.51799  1.0000
  C   C287      1.0  0.18921  0.14175  0.34203  1.0000
  C   C288      1.0  0.19710  0.12778  0.42458  1.0000
  C   C289      1.0  0.20902  0.09780  0.42790  1.0000
  C   C290      1.0  0.21279  0.08111  0.34645  1.0000
  N   N33       1.0  0.21680  0.08657  0.51089  1.0000
  C   C291      1.0  0.21321  0.10243  0.58878  1.0000
  C   C292      1.0  0.20131  0.13193  0.58499  1.0000
  N   N34       1.0  0.19383  0.14317  0.50311  1.0000
  H   H143      1.0  0.22482  0.06616  0.51609  1.0000
  C   C293      1.0  0.19602  0.14911  0.66109  1.0000
  O   O79       1.0  0.20788  0.17401  0.66353  1.0000
  C   C294      1.0  0.82142  0.86909  0.34251  1.0000
  C   C295      1.0  0.81334  0.88303  0.42495  1.0000
  C   C296      1.0  0.80154  0.91306  0.42809  1.0000
  C   C297      1.0  0.79815  0.92983  0.34665  1.0000
  N   N35       1.0  0.79352  0.92429  0.51088  1.0000
  C   C298      1.0  0.79677  0.90838  0.58881  1.0000
  C   C299      1.0  0.80860  0.87885  0.58524  1.0000
  N   N36       1.0  0.81631  0.86760  0.50353  1.0000
  H   H144      1.0  0.78558  0.94474  0.51594  1.0000
  C   C300      1.0  0.81352  0.86164  0.66154  1.0000
  O   O80       1.0  0.79995  0.83762  0.66414  1.0000
  C   C301      1.0  0.86893  0.18951  0.34198  1.0000
  C   C302      1.0  0.88295  0.19719  0.42462  1.0000
  C   C303      1.0  0.91295  0.20905  0.42801  1.0000
  C   C304      1.0  0.92963  0.21292  0.34660  1.0000
  N   N37       1.0  0.92425  0.21667  0.51105  1.0000
  C   C305      1.0  0.90841  0.21298  0.58896  1.0000
  C   C306      1.0  0.87889  0.20112  0.58511  1.0000
  N   N38       1.0  0.86759  0.19381  0.50315  1.0000
  H   H145      1.0  0.94466  0.22466  0.51628  1.0000
  C   C307      1.0  0.86172  0.19576  0.66119  1.0000
  O   O81       1.0  0.83670  0.20738  0.66348  1.0000
  C   C308      1.0  0.14167  0.82162  0.34209  1.0000
  C   C309      1.0  0.12772  0.81370  0.42463  1.0000
  C   C310      1.0  0.09770  0.80189  0.42796  1.0000
  C   C311      1.0  0.08093  0.79831  0.34659  1.0000
  N   N39       1.0  0.08647  0.79403  0.51089  1.0000
  C   C312      1.0  0.10238  0.79746  0.58876  1.0000
  C   C313      1.0  0.13192  0.80927  0.58498  1.0000
  N   N40       1.0  0.14315  0.81681  0.50314  1.0000
  H   H146      1.0  0.06603  0.78609  0.51608  1.0000
  C   C314      1.0  0.14915  0.81440  0.66106  1.0000
  O   O82       1.0  0.17391  0.80226  0.66353  1.0000
  C   C315      1.0  0.30050  0.59801  0.42736  1.0000
  C   C316      1.0  0.31199  0.62772  0.42697  1.0000
  H   H147      1.0  0.31288  0.63939  0.48643  1.0000
  H   H148      1.0  0.29290  0.58928  0.48712  1.0000
  O   O83       1.0  0.35202  0.62970  0.64393  1.0000
  H   H149      1.0  0.35931  0.61107  0.64471  1.0000
  C   C317      1.0  0.70961  0.41292  0.42738  1.0000
  C   C318      1.0  0.69822  0.38319  0.42714  1.0000
  H   H150      1.0  0.69738  0.37154  0.48664  1.0000
  H   H151      1.0  0.71713  0.42172  0.48714  1.0000
  O   O84       1.0  0.65819  0.38065  0.64450  1.0000
  H   H152      1.0  0.65076  0.39922  0.64521  1.0000
  C   C319      1.0  0.59776  0.71019  0.42724  1.0000
  C   C320      1.0  0.62749  0.69877  0.42698  1.0000
  H   H153      1.0  0.63916  0.69797  0.48646  1.0000
  H   H154      1.0  0.58903  0.71784  0.48694  1.0000
  O   O85       1.0  0.62955  0.65855  0.64395  1.0000
  H   H155      1.0  0.61092  0.65127  0.64467  1.0000
  C   C321      1.0  0.41260  0.30099  0.42745  1.0000
  C   C322      1.0  0.38287  0.31240  0.42712  1.0000
  H   H156      1.0  0.37120  0.31324  0.48658  1.0000
  H   H157      1.0  0.42136  0.29342  0.48721  1.0000
  O   O86       1.0  0.38069  0.35235  0.64407  1.0000
  H   H158      1.0  0.39929  0.35971  0.64483  1.0000
  C   C323      1.0  0.22754  0.95186  0.41828  1.0000
  C   C324      1.0  0.22137  0.92059  0.41897  1.0000
  H   H159      1.0  0.22091  0.90947  0.47933  1.0000
  H   H160      1.0  0.23174  0.96239  0.47841  1.0000
  O   O87       1.0  0.18782  0.90624  0.63887  1.0000
  H   H161      1.0  0.17646  0.92272  0.63861  1.0000
  C   C325      1.0  0.78348  0.05904  0.41806  1.0000
  C   C326      1.0  0.78961  0.09031  0.41883  1.0000
  H   H162      1.0  0.79014  0.10139  0.47925  1.0000
  H   H163      1.0  0.77941  0.04845  0.47818  1.0000
  O   O88       1.0  0.82284  0.10548  0.63969  1.0000
  H   H164      1.0  0.83449  0.08920  0.63960  1.0000
  C   C327      1.0  0.05888  0.22766  0.41831  1.0000
  C   C328      1.0  0.09014  0.22145  0.41899  1.0000
  H   H165      1.0  0.10127  0.22102  0.47934  1.0000
  H   H166      1.0  0.04836  0.23192  0.47843  1.0000
  O   O89       1.0  0.10437  0.18776  0.63881  1.0000
  H   H167      1.0  0.08785  0.17645  0.63855  1.0000
  C   C329      1.0  0.95174  0.78359  0.41824  1.0000
  C   C330      1.0  0.92046  0.78967  0.41904  1.0000
  H   H168      1.0  0.90939  0.79021  0.47947  1.0000
  H   H169      1.0  0.96234  0.77954  0.47836  1.0000
  O   O90       1.0  0.90519  0.82276  0.63986  1.0000
  H   H170      1.0  0.92146  0.83443  0.63972  1.0000
  C   C331      1.0  0.29388  0.40419  0.34887  1.0000
  C   C332      1.0  0.29283  0.42064  0.43073  1.0000
  C   C333      1.0  0.28656  0.45233  0.43269  1.0000
  C   C334      1.0  0.28170  0.46824  0.35038  1.0000
  N   N41       1.0  0.28508  0.46601  0.51550  1.0000
  C   C335      1.0  0.28956  0.45089  0.59429  1.0000
  C   C336      1.0  0.29591  0.41968  0.59205  1.0000
  N   N42       1.0  0.29715  0.40610  0.51027  1.0000
  H   H171      1.0  0.28077  0.48752  0.51977  1.0000
  C   C337      1.0  0.71632  0.60679  0.34911  1.0000
  C   C338      1.0  0.71749  0.59038  0.43104  1.0000
  C   C339      1.0  0.72369  0.55867  0.43305  1.0000
  C   C340      1.0  0.72833  0.54271  0.35073  1.0000
  N   N43       1.0  0.72527  0.54503  0.51588  1.0000
  C   C341      1.0  0.72096  0.56019  0.59468  1.0000
  C   C342      1.0  0.71470  0.59142  0.59240  1.0000
  N   N44       1.0  0.71333  0.60497  0.51058  1.0000
  H   H172      1.0  0.72951  0.52350  0.52016  1.0000
  C   C343      1.0  0.40393  0.71660  0.34872  1.0000
  C   C344      1.0  0.42039  0.71763  0.43059  1.0000
  C   C345      1.0  0.45207  0.72394  0.43256  1.0000
  C   C346      1.0  0.46797  0.72886  0.35027  1.0000
  N   N45       1.0  0.46575  0.72541  0.51537  1.0000
  C   C347      1.0  0.45065  0.72089  0.59414  1.0000
  C   C348      1.0  0.41944  0.71450  0.59190  1.0000
  N   N46       1.0  0.40585  0.71327  0.51012  1.0000
  H   H173      1.0  0.48726  0.72975  0.51963  1.0000
  C   C349      1.0  0.60650  0.29422  0.34927  1.0000
  C   C350      1.0  0.59010  0.29306  0.43121  1.0000
  C   C351      1.0  0.55838  0.28689  0.43321  1.0000
  C   C352      1.0  0.54241  0.28227  0.35090  1.0000
  N   N47       1.0  0.54474  0.28530  0.51606  1.0000
  C   C353      1.0  0.55991  0.28960  0.59484  1.0000
  C   C354      1.0  0.59114  0.29583  0.59256  1.0000
  N   N48       1.0  0.60469  0.29720  0.51074  1.0000
  H   H174      1.0  0.52321  0.28108  0.52034  1.0000
  C   C355      1.0  0.25942  0.29706  0.34793  1.0000
  C   C356      1.0  0.24513  0.28753  0.42864  1.0000
  C   C357      1.0  0.22221  0.26472  0.42885  1.0000
  C   C358      1.0  0.21320  0.25097  0.34622  1.0000
  N   N49       1.0  0.21021  0.25654  0.51047  1.0000
  C   C359      1.0  0.21915  0.26903  0.58991  1.0000
  C   C360      1.0  0.24179  0.29144  0.58962  1.0000
  N   N50       1.0  0.25370  0.29953  0.50891  1.0000
  H   H175      1.0  0.19477  0.24092  0.51356  1.0000
  C   C361      1.0  0.75097  0.71386  0.34824  1.0000
  C   C362      1.0  0.76523  0.72339  0.42899  1.0000
  C   C363      1.0  0.78819  0.74617  0.42926  1.0000
  C   C364      1.0  0.79726  0.75989  0.34665  1.0000
  N   N51       1.0  0.80018  0.75432  0.51093  1.0000
  C   C365      1.0  0.79119  0.74185  0.59032  1.0000
  C   C366      1.0  0.76850  0.71949  0.58999  1.0000
  N   N52       1.0  0.75662  0.71140  0.50924  1.0000
  H   H176      1.0  0.81566  0.76990  0.51405  1.0000
  C   C367      1.0  0.71361  0.25967  0.34806  1.0000
  C   C368      1.0  0.72312  0.24533  0.42871  1.0000
  C   C369      1.0  0.74592  0.22239  0.42884  1.0000
  C   C370      1.0  0.75969  0.21343  0.34620  1.0000
  N   N53       1.0  0.75407  0.21035  0.51043  1.0000
  C   C371      1.0  0.74157  0.21924  0.58988  1.0000
  C   C372      1.0  0.71918  0.24190  0.58967  1.0000
  N   N54       1.0  0.71110  0.25386  0.50901  1.0000
  H   H177      1.0  0.76968  0.19489  0.51347  1.0000
  C   C373      1.0  0.29684  0.75115  0.34787  1.0000
  C   C374      1.0  0.28734  0.76544  0.42861  1.0000
  C   C375      1.0  0.26458  0.78841  0.42886  1.0000
  C   C376      1.0  0.25085  0.79746  0.34625  1.0000
  N   N55       1.0  0.25643  0.80040  0.51052  1.0000
  C   C377      1.0  0.26890  0.79143  0.58993  1.0000
  C   C378      1.0  0.29127  0.76875  0.58959  1.0000
  N   N56       1.0  0.29933  0.75683  0.50886  1.0000
  H   H178      1.0  0.24084  0.81588  0.51363  1.0000
  C   C379      1.0  0.48299  0.02831  0.34733  1.0000
  C   C380      1.0  0.49222  0.01544  0.43008  1.0000
  C   C381      1.0  0.51493  0.99272  0.43275  1.0000
  C   C382      1.0  0.52824  0.98308  0.35039  1.0000
  N   N57       1.0  0.52298  0.98157  0.51555  1.0000
  C   C383      1.0  0.51025  0.99126  0.59393  1.0000
  C   C384      1.0  0.48768  0.01376  0.59116  1.0000
  N   N58       1.0  0.47984  0.02475  0.50911  1.0000
  H   H179      1.0  0.53863  0.96620  0.52018  1.0000
  C   C385      1.0  0.98224  0.48308  0.34740  1.0000
  C   C386      1.0  0.99507  0.49235  0.43017  1.0000
  C   C387      1.0  0.01779  0.51506  0.43286  1.0000
  C   C388      1.0  0.02746  0.52835  0.35049  1.0000
  N   N59       1.0  0.02891  0.52314  0.51568  1.0000
  C   C389      1.0  0.01919  0.51043  0.59406  1.0000
  C   C390      1.0  0.99667  0.48788  0.59127  1.0000
  N   N60       1.0  0.98573  0.47999  0.50920  1.0000
  H   H180      1.0  0.04429  0.53878  0.52030  1.0000
