data_image0
_chemical_formula_structural       NCHNCHNCHNCHNCHNCHC2NC2NC2NC2NC2NC2NC2NC2NC2NC2NC2NC2NC2NC2NC2NC2NC2NC2NC2NC2NC2NC2NC2NC2N2C18H12NC18H12NC18H12NC18H12NC18H12NC18H12NC18H12NC18H12NC18H12NC18H12NC18H12NC18H12C2NC2NC2NC2NC2NC2NC2NC2NC2NC2NC2NC2N2CHNCHNCHNCHNCHNCHNCHNCHNCHNCHNCHNCH
_chemical_formula_sum              "N66 C306 H162"
_cell_length_a       63.8497
_cell_length_b       63.8497
_cell_length_c       14.719
_cell_angle_alpha    90
_cell_angle_beta     90
_cell_angle_gamma    120

_space_group_name_H-M_alt    "P 1"
_space_group_IT_number       1

loop_
  _space_group_symop_operation_xyz
  'x, y, z'

loop_
  _atom_site_type_symbol
  _atom_site_label
  _atom_site_symmetry_multiplicity
  _atom_site_fract_x
  _atom_site_fract_y
  _atom_site_fract_z
  _atom_site_occupancy
  N   N1        1.0  0.20856  0.40589  0.28146  1.0000
  C   C1        1.0  0.19584  0.38138  0.27288  1.0000
  H   H1        1.0  0.18930  0.37439  0.21021  1.0000
  N   N2        1.0  0.60520  0.79470  0.28141  1.0000
  C   C2        1.0  0.62971  0.80650  0.27281  1.0000
  H   H2        1.0  0.63669  0.80695  0.21013  1.0000
  N   N3        1.0  0.21640  0.80253  0.28138  1.0000
  C   C3        1.0  0.20459  0.81524  0.27277  1.0000
  H   H3        1.0  0.20417  0.82179  0.21010  1.0000
  N   N4        1.0  0.81150  0.59620  0.28139  1.0000
  C   C4        1.0  0.82422  0.62071  0.27277  1.0000
  H   H4        1.0  0.83075  0.62769  0.21009  1.0000
  N   N5        1.0  0.41494  0.20738  0.28157  1.0000
  C   C5        1.0  0.39043  0.19560  0.27297  1.0000
  H   H5        1.0  0.38345  0.19520  0.21033  1.0000
  N   N6        1.0  0.80402  0.19983  0.28077  1.0000
  C   C6        1.0  0.81583  0.18713  0.27222  1.0000
  H   H6        1.0  0.81652  0.18081  0.20937  1.0000
  C   C7        1.0  0.19230  0.20933  0.34655  1.0000
  C   C8        1.0  0.21881  0.18407  0.35841  1.0000
  N   N7        1.0  0.20731  0.18487  0.28145  1.0000
  C   C9        1.0  0.19455  0.19660  0.27127  1.0000
  C   C10       1.0  0.18383  0.19373  0.19346  1.0000
  N   N8        1.0  0.17437  0.19109  0.12460  1.0000
  C   C11       1.0  0.80177  0.97499  0.34645  1.0000
  C   C12       1.0  0.82704  0.02676  0.35830  1.0000
  N   N9        1.0  0.82625  0.01446  0.28136  1.0000
  C   C13       1.0  0.81453  0.98997  0.27121  1.0000
  C   C14       1.0  0.81736  0.98211  0.19334  1.0000
  N   N10       1.0  0.81996  0.97528  0.12444  1.0000
  C   C15       1.0  0.03612  0.81882  0.34639  1.0000
  C   C16       1.0  0.98434  0.79232  0.35826  1.0000
  N   N11       1.0  0.99665  0.80383  0.28131  1.0000
  C   C17       1.0  0.02113  0.81659  0.27115  1.0000
  C   C18       1.0  0.02899  0.82727  0.19327  1.0000
  N   N12       1.0  0.03582  0.83669  0.12434  1.0000
  C   C19       1.0  0.82783  0.79277  0.34646  1.0000
  C   C20       1.0  0.80133  0.81804  0.35834  1.0000
  N   N13       1.0  0.81285  0.81726  0.28140  1.0000
  C   C21       1.0  0.82562  0.80554  0.27125  1.0000
  C   C22       1.0  0.83631  0.80838  0.19337  1.0000
  N   N14       1.0  0.84574  0.81098  0.12447  1.0000
  C   C23       1.0  0.21834  0.02711  0.34649  1.0000
  C   C24       1.0  0.19308  0.97533  0.35832  1.0000
  N   N15       1.0  0.19387  0.98764  0.28138  1.0000
  C   C25       1.0  0.20559  0.01213  0.27125  1.0000
  C   C26       1.0  0.20276  0.01999  0.19337  1.0000
  N   N16       1.0  0.20016  0.02682  0.12447  1.0000
  C   C27       1.0  0.98400  0.18326  0.34656  1.0000
  C   C28       1.0  0.03578  0.20977  0.35845  1.0000
  N   N17       1.0  0.02347  0.19824  0.28151  1.0000
  C   C29       1.0  0.99899  0.18548  0.27134  1.0000
  C   C30       1.0  0.99114  0.17475  0.19353  1.0000
  N   N18       1.0  0.98432  0.16528  0.12468  1.0000
  C   C31       1.0  0.24975  0.59875  0.34206  1.0000
  C   C32       1.0  0.25098  0.64370  0.35666  1.0000
  N   N19       1.0  0.24084  0.62850  0.28464  1.0000
  C   C33       1.0  0.23969  0.60683  0.27373  1.0000
  C   C34       1.0  0.22835  0.59462  0.20180  1.0000
  N   N20       1.0  0.21845  0.58399  0.13781  1.0000
  C   C35       1.0  0.41233  0.64301  0.34209  1.0000
  C   C36       1.0  0.36739  0.59929  0.35667  1.0000
  N   N21       1.0  0.38256  0.60436  0.28459  1.0000
  C   C37       1.0  0.40425  0.62489  0.27369  1.0000
  C   C38       1.0  0.41643  0.62577  0.20169  1.0000
  N   N22       1.0  0.42705  0.62652  0.13764  1.0000
  C   C39       1.0  0.36806  0.76134  0.34207  1.0000
  C   C40       1.0  0.41178  0.76011  0.35664  1.0000
  N   N23       1.0  0.40672  0.77024  0.28460  1.0000
  C   C41       1.0  0.38619  0.77139  0.27372  1.0000
  C   C42       1.0  0.38532  0.78272  0.20177  1.0000
  N   N24       1.0  0.38459  0.79261  0.13777  1.0000
  C   C43       1.0  0.77047  0.40343  0.34203  1.0000
  C   C44       1.0  0.76929  0.35849  0.35684  1.0000
  N   N25       1.0  0.77931  0.37363  0.28459  1.0000
  C   C45       1.0  0.78045  0.39530  0.27358  1.0000
  C   C46       1.0  0.79162  0.40740  0.20126  1.0000
  N   N26       1.0  0.80136  0.41795  0.13690  1.0000
  C   C47       1.0  0.60776  0.35902  0.34238  1.0000
  C   C48       1.0  0.65270  0.40275  0.35701  1.0000
  N   N27       1.0  0.63752  0.39768  0.28496  1.0000
  C   C49       1.0  0.61583  0.37716  0.27406  1.0000
  C   C50       1.0  0.60367  0.37627  0.20198  1.0000
  N   N28       1.0  0.59307  0.37551  0.13786  1.0000
  C   C51       1.0  0.65213  0.24080  0.34067  1.0000
  C   C52       1.0  0.60835  0.24191  0.35588  1.0000
  N   N29       1.0  0.61359  0.23220  0.28297  1.0000
  C   C53       1.0  0.63415  0.23111  0.27173  1.0000
  C   C54       1.0  0.63519  0.22025  0.19867  1.0000
  N   N30       1.0  0.63609  0.21078  0.13367  1.0000
  N   N31       1.0  0.14046  0.26184  0.35488  1.0000
  C   C55       1.0  0.11456  0.24888  0.35617  1.0000
  C   C56       1.0  0.15334  0.28773  0.35296  1.0000
  C   C57       1.0  0.15346  0.24895  0.35294  1.0000
  C   C58       1.0  0.16678  0.24952  0.27547  1.0000
  C   C59       1.0  0.17955  0.23675  0.27330  1.0000
  C   C60       1.0  0.17940  0.22260  0.34796  1.0000
  C   C61       1.0  0.16638  0.22260  0.42616  1.0000
  C   C62       1.0  0.15359  0.23537  0.42849  1.0000
  C   C63       1.0  0.10164  0.24977  0.43245  1.0000
  C   C64       1.0  0.07608  0.23712  0.43368  1.0000
  C   C65       1.0  0.06206  0.22287  0.35896  1.0000
  C   C66       1.0  0.07544  0.22228  0.28265  1.0000
  C   C67       1.0  0.10100  0.23492  0.28114  1.0000
  C   C68       1.0  0.15226  0.30054  0.27666  1.0000
  C   C69       1.0  0.16493  0.32609  0.27491  1.0000
  C   C70       1.0  0.17937  0.34018  0.34913  1.0000
  C   C71       1.0  0.18014  0.32692  0.42550  1.0000
  C   C72       1.0  0.16750  0.30137  0.42745  1.0000
  H   H7        1.0  0.06796  0.23879  0.49064  1.0000
  H   H8        1.0  0.11090  0.25977  0.48787  1.0000
  H   H9        1.0  0.10977  0.23396  0.22454  1.0000
  H   H10       1.0  0.06667  0.21246  0.22622  1.0000
  H   H11       1.0  0.16733  0.25943  0.22002  1.0000
  H   H12       1.0  0.18951  0.23845  0.21664  1.0000
  H   H13       1.0  0.14210  0.29121  0.22162  1.0000
  H   H14       1.0  0.16306  0.33417  0.21819  1.0000
  H   H15       1.0  0.19015  0.33577  0.48149  1.0000
  H   H16       1.0  0.16862  0.29267  0.48398  1.0000
  H   H17       1.0  0.14427  0.23472  0.48591  1.0000
  H   H18       1.0  0.16568  0.21282  0.48227  1.0000
  N   N32       1.0  0.74925  0.87064  0.35478  1.0000
  C   C73       1.0  0.76221  0.85771  0.35606  1.0000
  C   C74       1.0  0.72336  0.85764  0.35287  1.0000
  C   C75       1.0  0.76214  0.89653  0.35285  1.0000
  C   C76       1.0  0.76156  0.90928  0.27539  1.0000
  C   C77       1.0  0.77433  0.93482  0.27322  1.0000
  C   C78       1.0  0.78850  0.94883  0.34785  1.0000
  C   C79       1.0  0.78849  0.93580  0.42607  1.0000
  C   C80       1.0  0.77571  0.91024  0.42840  1.0000
  C   C81       1.0  0.76132  0.84390  0.43234  1.0000
  C   C82       1.0  0.77397  0.83099  0.43357  1.0000
  C   C83       1.0  0.78823  0.83122  0.35886  1.0000
  C   C84       1.0  0.78881  0.84519  0.28254  1.0000
  C   C85       1.0  0.77617  0.85810  0.28104  1.0000
  C   C86       1.0  0.71055  0.84375  0.27656  1.0000
  C   C87       1.0  0.68500  0.83087  0.27482  1.0000
  C   C88       1.0  0.67091  0.83122  0.34906  1.0000
  C   C89       1.0  0.68417  0.84524  0.42543  1.0000
  C   C90       1.0  0.70972  0.85815  0.42738  1.0000
  H   H19       1.0  0.77231  0.82120  0.49053  1.0000
  H   H20       1.0  0.75131  0.84315  0.48777  1.0000
  H   H21       1.0  0.77713  0.86783  0.22444  1.0000
  H   H22       1.0  0.79864  0.84625  0.22612  1.0000
  H   H23       1.0  0.75165  0.89992  0.21992  1.0000
  H   H24       1.0  0.77264  0.94309  0.21654  1.0000
  H   H25       1.0  0.71988  0.84293  0.22151  1.0000
  H   H26       1.0  0.67691  0.82092  0.21809  1.0000
  H   H27       1.0  0.67532  0.84639  0.48144  1.0000
  H   H28       1.0  0.71842  0.86796  0.48391  1.0000
  H   H29       1.0  0.77637  0.90157  0.48582  1.0000
  H   H30       1.0  0.79828  0.94489  0.48216  1.0000
  N   N33       1.0  0.14047  0.87065  0.35469  1.0000
  C   C91       1.0  0.15340  0.89655  0.35599  1.0000
  C   C92       1.0  0.15347  0.85777  0.35279  1.0000
  C   C93       1.0  0.11457  0.85765  0.35277  1.0000
  C   C94       1.0  0.10183  0.84432  0.27532  1.0000
  C   C95       1.0  0.07629  0.83154  0.27318  1.0000
  C   C96       1.0  0.06228  0.83171  0.34779  1.0000
  C   C97       1.0  0.07531  0.84474  0.42598  1.0000
  C   C98       1.0  0.10087  0.85753  0.42831  1.0000
  C   C99       1.0  0.16720  0.90946  0.43228  1.0000
  C   C100      1.0  0.18012  0.93502  0.43353  1.0000
  C   C101      1.0  0.17990  0.94905  0.35882  1.0000
  C   C102      1.0  0.16593  0.93567  0.28249  1.0000
  C   C103      1.0  0.15301  0.91011  0.28098  1.0000
  C   C104      1.0  0.16735  0.85884  0.27650  1.0000
  C   C105      1.0  0.18023  0.84616  0.27476  1.0000
  C   C106      1.0  0.17988  0.83173  0.34900  1.0000
  C   C107      1.0  0.16586  0.83097  0.42537  1.0000
  C   C108      1.0  0.15295  0.84361  0.42731  1.0000
  H   H31       1.0  0.18990  0.94314  0.49049  1.0000
  H   H32       1.0  0.16795  0.90020  0.48771  1.0000
  H   H33       1.0  0.14328  0.90134  0.22436  1.0000
  H   H34       1.0  0.16487  0.94444  0.22607  1.0000
  H   H35       1.0  0.11119  0.84377  0.21986  1.0000
  H   H36       1.0  0.06802  0.82159  0.21649  1.0000
  H   H37       1.0  0.16818  0.86899  0.22144  1.0000
  H   H38       1.0  0.19018  0.84802  0.21803  1.0000
  H   H39       1.0  0.16470  0.82096  0.48138  1.0000
  H   H40       1.0  0.14314  0.84250  0.48384  1.0000
  H   H41       1.0  0.10954  0.86686  0.48572  1.0000
  H   H42       1.0  0.06623  0.84545  0.48207  1.0000
  N   N34       1.0  0.87966  0.74025  0.35471  1.0000
  C   C109      1.0  0.90556  0.75321  0.35599  1.0000
  C   C110      1.0  0.86678  0.71437  0.35281  1.0000
  C   C111      1.0  0.86666  0.75314  0.35280  1.0000
  C   C112      1.0  0.85333  0.75256  0.27535  1.0000
  C   C113      1.0  0.84056  0.76533  0.27322  1.0000
  C   C114      1.0  0.84072  0.77949  0.34786  1.0000
  C   C115      1.0  0.85374  0.77949  0.42605  1.0000
  C   C116      1.0  0.86654  0.76672  0.42836  1.0000
  C   C117      1.0  0.91848  0.75232  0.43227  1.0000
  C   C118      1.0  0.94403  0.76497  0.43351  1.0000
  C   C119      1.0  0.95806  0.77922  0.35879  1.0000
  C   C120      1.0  0.94468  0.77981  0.28247  1.0000
  C   C121      1.0  0.91912  0.76717  0.28097  1.0000
  C   C122      1.0  0.86783  0.70155  0.27650  1.0000
  C   C123      1.0  0.85515  0.67600  0.27476  1.0000
  C   C124      1.0  0.84072  0.66191  0.34901  1.0000
  C   C125      1.0  0.83998  0.67518  0.42540  1.0000
  C   C126      1.0  0.85263  0.70073  0.42734  1.0000
  H   H43       1.0  0.95216  0.76330  0.49045  1.0000
  H   H44       1.0  0.90922  0.74232  0.48769  1.0000
  H   H45       1.0  0.91035  0.76813  0.22437  1.0000
  H   H46       1.0  0.95344  0.78963  0.22604  1.0000
  H   H47       1.0  0.85279  0.74267  0.21988  1.0000
  H   H48       1.0  0.83061  0.76366  0.21651  1.0000
  H   H49       1.0  0.87798  0.71088  0.22143  1.0000
  H   H50       1.0  0.85701  0.66791  0.21802  1.0000
  H   H51       1.0  0.82998  0.66633  0.48142  1.0000
  H   H52       1.0  0.85152  0.70944  0.48388  1.0000
  H   H53       1.0  0.87587  0.76738  0.48576  1.0000
  H   H54       1.0  0.85446  0.78929  0.48214  1.0000
  N   N35       1.0  0.27088  0.13145  0.35484  1.0000
  C   C127      1.0  0.25792  0.14439  0.35612  1.0000
  C   C128      1.0  0.29677  0.14446  0.35295  1.0000
  C   C129      1.0  0.25799  0.10556  0.35290  1.0000
  C   C130      1.0  0.25857  0.09282  0.27544  1.0000
  C   C131      1.0  0.24580  0.06728  0.27328  1.0000
  C   C132      1.0  0.23163  0.05327  0.34790  1.0000
  C   C133      1.0  0.23163  0.06630  0.42610  1.0000
  C   C134      1.0  0.24441  0.09186  0.42844  1.0000
  C   C135      1.0  0.25880  0.15819  0.43241  1.0000
  C   C136      1.0  0.24615  0.17110  0.43366  1.0000
  C   C137      1.0  0.23191  0.17088  0.35893  1.0000
  C   C138      1.0  0.23133  0.15692  0.28260  1.0000
  C   C139      1.0  0.24397  0.14400  0.28110  1.0000
  C   C140      1.0  0.30959  0.15834  0.27666  1.0000
  C   C141      1.0  0.33514  0.17122  0.27494  1.0000
  C   C142      1.0  0.34922  0.17086  0.34916  1.0000
  C   C143      1.0  0.33595  0.15683  0.42553  1.0000
  C   C144      1.0  0.31040  0.14393  0.42746  1.0000
  H   H55       1.0  0.24782  0.18090  0.49061  1.0000
  H   H56       1.0  0.26881  0.15894  0.48784  1.0000
  H   H57       1.0  0.24301  0.13428  0.22448  1.0000
  H   H58       1.0  0.22150  0.15586  0.22617  1.0000
  H   H59       1.0  0.26847  0.10218  0.21998  1.0000
  H   H60       1.0  0.24748  0.05901  0.21658  1.0000
  H   H61       1.0  0.30026  0.15918  0.22160  1.0000
  H   H62       1.0  0.34323  0.18116  0.21819  1.0000
  H   H63       1.0  0.34480  0.15567  0.48152  1.0000
  H   H64       1.0  0.30170  0.13412  0.48398  1.0000
  H   H65       1.0  0.24374  0.10052  0.48585  1.0000
  H   H66       1.0  0.22183  0.05721  0.48218  1.0000
  N   N36       1.0  0.87966  0.13145  0.35470  1.0000
  C   C145      1.0  0.86672  0.10555  0.35598  1.0000
  C   C146      1.0  0.86666  0.14433  0.35274  1.0000
  C   C147      1.0  0.90555  0.14444  0.35283  1.0000
  C   C148      1.0  0.91830  0.15775  0.27536  1.0000
  C   C149      1.0  0.94384  0.17053  0.27325  1.0000
  C   C150      1.0  0.95784  0.17037  0.34793  1.0000
  C   C151      1.0  0.94481  0.15737  0.42613  1.0000
  C   C152      1.0  0.91924  0.14458  0.42843  1.0000
  C   C153      1.0  0.85290  0.09263  0.43225  1.0000
  C   C154      1.0  0.83999  0.06707  0.43350  1.0000
  C   C155      1.0  0.84022  0.05305  0.35880  1.0000
  C   C156      1.0  0.85420  0.06643  0.28249  1.0000
  C   C157      1.0  0.86711  0.09198  0.28098  1.0000
  C   C158      1.0  0.85286  0.14333  0.27628  1.0000
  C   C159      1.0  0.83999  0.15602  0.27449  1.0000
  C   C160      1.0  0.84027  0.17039  0.34882  1.0000
  C   C161      1.0  0.85421  0.17108  0.42537  1.0000
  C   C162      1.0  0.86711  0.15843  0.42736  1.0000
  H   H67       1.0  0.83019  0.05895  0.49043  1.0000
  H   H68       1.0  0.85215  0.10189  0.48766  1.0000
  H   H69       1.0  0.87685  0.10075  0.22439  1.0000
  H   H70       1.0  0.85526  0.05766  0.22608  1.0000
  H   H71       1.0  0.90895  0.15829  0.21986  1.0000
  H   H72       1.0  0.95212  0.18047  0.21654  1.0000
  H   H73       1.0  0.85208  0.13322  0.22115  1.0000
  H   H74       1.0  0.83009  0.15421  0.21764  1.0000
  H   H75       1.0  0.85531  0.18104  0.48144  1.0000
  H   H76       1.0  0.87686  0.15948  0.48400  1.0000
  H   H77       1.0  0.91057  0.13526  0.48585  1.0000
  H   H78       1.0  0.95388  0.15667  0.48227  1.0000
  N   N37       1.0  0.27055  0.52230  0.34824  1.0000
  C   C163      1.0  0.29624  0.53626  0.35398  1.0000
  C   C164      1.0  0.25764  0.49651  0.35139  1.0000
  C   C165      1.0  0.25894  0.53639  0.34374  1.0000
  C   C166      1.0  0.25955  0.54802  0.26138  1.0000
  C   C167      1.0  0.25586  0.56799  0.26007  1.0000
  C   C168      1.0  0.25092  0.57686  0.34077  1.0000
  C   C169      1.0  0.24948  0.56452  0.42270  1.0000
  C   C170      1.0  0.25350  0.54474  0.42427  1.0000
  C   C171      1.0  0.30995  0.54502  0.27352  1.0000
  C   C172      1.0  0.33360  0.56501  0.27549  1.0000
  C   C173      1.0  0.34441  0.57729  0.35774  1.0000
  C   C174      1.0  0.33096  0.56741  0.43874  1.0000
  C   C175      1.0  0.30733  0.54735  0.43691  1.0000
  C   C176      1.0  0.25833  0.48270  0.27773  1.0000
  C   C177      1.0  0.24555  0.45715  0.28074  1.0000
  C   C178      1.0  0.23171  0.44429  0.35777  1.0000
  C   C179      1.0  0.23076  0.45841  0.43045  1.0000
  C   C180      1.0  0.24355  0.48393  0.42766  1.0000
  H   H79       1.0  0.34215  0.57155  0.21465  1.0000
  H   H80       1.0  0.30205  0.53814  0.21201  1.0000
  H   H81       1.0  0.29752  0.54208  0.49576  1.0000
  H   H82       1.0  0.33781  0.57522  0.50030  1.0000
  H   H83       1.0  0.26488  0.54338  0.20291  1.0000
  H   H84       1.0  0.25881  0.57713  0.20017  1.0000
  H   H85       1.0  0.26818  0.49124  0.22111  1.0000
  H   H86       1.0  0.24682  0.44797  0.22604  1.0000
  H   H87       1.0  0.22022  0.45024  0.48603  1.0000
  H   H88       1.0  0.24245  0.49333  0.48185  1.0000
  H   H89       1.0  0.25438  0.53772  0.48559  1.0000
  H   H90       1.0  0.24654  0.57051  0.48322  1.0000
  N   N38       1.0  0.48879  0.74026  0.34846  1.0000
  C   C181      1.0  0.47483  0.75199  0.35388  1.0000
  C   C182      1.0  0.51457  0.75313  0.35149  1.0000
  C   C183      1.0  0.47470  0.71455  0.34385  1.0000
  C   C184      1.0  0.46308  0.70354  0.26146  1.0000
  C   C185      1.0  0.44307  0.67989  0.26017  1.0000
  C   C186      1.0  0.43422  0.66607  0.34084  1.0000
  C   C187      1.0  0.44659  0.67694  0.42275  1.0000
  C   C188      1.0  0.46633  0.70076  0.42435  1.0000
  C   C189      1.0  0.46607  0.75696  0.27349  1.0000
  C   C190      1.0  0.44606  0.76060  0.27547  1.0000
  C   C191      1.0  0.43378  0.75911  0.35770  1.0000
  C   C192      1.0  0.44365  0.75555  0.43870  1.0000
  C   C193      1.0  0.46368  0.75192  0.43678  1.0000
  C   C194      1.0  0.52838  0.76763  0.27782  1.0000
  C   C195      1.0  0.55392  0.78040  0.28077  1.0000
  C   C196      1.0  0.56680  0.77942  0.35777  1.0000
  C   C197      1.0  0.55269  0.76435  0.43045  1.0000
  C   C198      1.0  0.52717  0.75162  0.42771  1.0000
  H   H91       1.0  0.43954  0.76265  0.21463  1.0000
  H   H92       1.0  0.47297  0.75598  0.21198  1.0000
  H   H93       1.0  0.46899  0.74744  0.49568  1.0000
  H   H94       1.0  0.43584  0.75457  0.50025  1.0000
  H   H95       1.0  0.46767  0.71352  0.20303  1.0000
  H   H96       1.0  0.43392  0.67373  0.20029  1.0000
  H   H97       1.0  0.51983  0.76895  0.22122  1.0000
  H   H98       1.0  0.56310  0.79087  0.22608  1.0000
  H   H99       1.0  0.56087  0.76197  0.48600  1.0000
  H   H100      1.0  0.51777  0.74111  0.48190  1.0000
  H   H101      1.0  0.47341  0.70863  0.48568  1.0000
  H   H102      1.0  0.44061  0.66799  0.48325  1.0000
  N   N39       1.0  0.27082  0.74055  0.34865  1.0000
  C   C199      1.0  0.25909  0.71485  0.35399  1.0000
  C   C200      1.0  0.25796  0.75347  0.35158  1.0000
  C   C201      1.0  0.29653  0.75215  0.34383  1.0000
  C   C202      1.0  0.30755  0.75157  0.26144  1.0000
  C   C203      1.0  0.33120  0.75523  0.26013  1.0000
  C   C204      1.0  0.34501  0.76017  0.34082  1.0000
  C   C205      1.0  0.33413  0.76165  0.42275  1.0000
  C   C206      1.0  0.31031  0.75756  0.42435  1.0000
  C   C207      1.0  0.25412  0.70113  0.27358  1.0000
  C   C208      1.0  0.25045  0.67747  0.27553  1.0000
  C   C209      1.0  0.25196  0.66668  0.35774  1.0000
  C   C210      1.0  0.25554  0.68012  0.43874  1.0000
  C   C211      1.0  0.25915  0.70376  0.43688  1.0000
  C   C212      1.0  0.24345  0.75276  0.27789  1.0000
  C   C213      1.0  0.23069  0.76554  0.28079  1.0000
  C   C214      1.0  0.23167  0.77940  0.35777  1.0000
  C   C215      1.0  0.24674  0.78037  0.43046  1.0000
  C   C216      1.0  0.25947  0.76758  0.42776  1.0000
  H   H103      1.0  0.24846  0.66893  0.21466  1.0000
  H   H104      1.0  0.25513  0.70902  0.21208  1.0000
  H   H105      1.0  0.26361  0.71355  0.49579  1.0000
  H   H106      1.0  0.25649  0.67326  0.50030  1.0000
  H   H107      1.0  0.29756  0.74618  0.20301  1.0000
  H   H108      1.0  0.33737  0.75223  0.20027  1.0000
  H   H109      1.0  0.24213  0.74288  0.22132  1.0000
  H   H110      1.0  0.22021  0.76424  0.22611  1.0000
  H   H111      1.0  0.24911  0.79093  0.48599  1.0000
  H   H112      1.0  0.26997  0.76870  0.48196  1.0000
  H   H113      1.0  0.30244  0.75677  0.48568  1.0000
  H   H114      1.0  0.34307  0.76460  0.48324  1.0000
  N   N40       1.0  0.74955  0.47980  0.34852  1.0000
  C   C217      1.0  0.72386  0.46582  0.35415  1.0000
  C   C218      1.0  0.76246  0.50558  0.35155  1.0000
  C   C219      1.0  0.76118  0.46572  0.34374  1.0000
  C   C220      1.0  0.76043  0.45400  0.26145  1.0000
  C   C221      1.0  0.76418  0.43406  0.26007  1.0000
  C   C222      1.0  0.76928  0.42530  0.34069  1.0000
  C   C223      1.0  0.77085  0.43772  0.42255  1.0000
  C   C224      1.0  0.76677  0.45746  0.42415  1.0000
  C   C225      1.0  0.71008  0.45711  0.27386  1.0000
  C   C226      1.0  0.68644  0.43709  0.27588  1.0000
  C   C227      1.0  0.67569  0.42475  0.35808  1.0000
  C   C228      1.0  0.68920  0.43456  0.43900  1.0000
  C   C229      1.0  0.71284  0.45460  0.43704  1.0000
  C   C230      1.0  0.76175  0.51938  0.27787  1.0000
  C   C231      1.0  0.77453  0.54492  0.28080  1.0000
  C   C232      1.0  0.78838  0.55780  0.35779  1.0000
  C   C233      1.0  0.78935  0.54370  0.43047  1.0000
  C   C234      1.0  0.77656  0.51818  0.42775  1.0000
  H   H115      1.0  0.67784  0.43062  0.21507  1.0000
  H   H116      1.0  0.71792  0.46405  0.21233  1.0000
  H   H117      1.0  0.72266  0.45988  0.49586  1.0000
  H   H118      1.0  0.68239  0.42673  0.50055  1.0000
  H   H119      1.0  0.75501  0.45858  0.20304  1.0000
  H   H120      1.0  0.76112  0.42485  0.20030  1.0000
  H   H121      1.0  0.75188  0.51083  0.22128  1.0000
  H   H122      1.0  0.77323  0.55410  0.22611  1.0000
  H   H123      1.0  0.79991  0.55189  0.48600  1.0000
  H   H124      1.0  0.77768  0.50879  0.48195  1.0000
  H   H125      1.0  0.76602  0.46455  0.48550  1.0000
  H   H126      1.0  0.77391  0.43180  0.48301  1.0000
  N   N41       1.0  0.53134  0.26176  0.34857  1.0000
  C   C235      1.0  0.54530  0.25001  0.35375  1.0000
  C   C236      1.0  0.50556  0.24890  0.35159  1.0000
  C   C237      1.0  0.54545  0.28748  0.34402  1.0000
  C   C238      1.0  0.55707  0.29847  0.26163  1.0000
  C   C239      1.0  0.57705  0.32213  0.26037  1.0000
  C   C240      1.0  0.58588  0.33595  0.34106  1.0000
  C   C241      1.0  0.57352  0.32505  0.42299  1.0000
  C   C242      1.0  0.55378  0.30123  0.42458  1.0000
  C   C243      1.0  0.55402  0.24508  0.27320  1.0000
  C   C244      1.0  0.57404  0.24145  0.27500  1.0000
  C   C245      1.0  0.58634  0.24289  0.35717  1.0000
  C   C246      1.0  0.57648  0.24643  0.43827  1.0000
  C   C247      1.0  0.55644  0.25004  0.43660  1.0000
  C   C248      1.0  0.49175  0.23444  0.27783  1.0000
  C   C249      1.0  0.46621  0.22168  0.28078  1.0000
  C   C250      1.0  0.45334  0.22260  0.35790  1.0000
  C   C251      1.0  0.46745  0.23762  0.43068  1.0000
  C   C252      1.0  0.49297  0.25035  0.42791  1.0000
  H   H127      1.0  0.58053  0.23942  0.21408  1.0000
  H   H128      1.0  0.54711  0.24609  0.21177  1.0000
  H   H129      1.0  0.55113  0.25449  0.49558  1.0000
  H   H130      1.0  0.58427  0.24733  0.49981  1.0000
  H   H131      1.0  0.55241  0.28852  0.20310  1.0000
  H   H132      1.0  0.58616  0.32834  0.20045  1.0000
  H   H133      1.0  0.50030  0.23315  0.22116  1.0000
  H   H134      1.0  0.45703  0.21124  0.22604  1.0000
  H   H135      1.0  0.45927  0.23996  0.48631  1.0000
  H   H136      1.0  0.50237  0.26082  0.48218  1.0000
  H   H137      1.0  0.54673  0.29334  0.48591  1.0000
  H   H138      1.0  0.57951  0.33399  0.48350  1.0000
  N   N42       1.0  0.74940  0.26164  0.34764  1.0000
  C   C253      1.0  0.76116  0.28733  0.35390  1.0000
  C   C254      1.0  0.76224  0.24869  0.35078  1.0000
  C   C255      1.0  0.72370  0.25008  0.34238  1.0000
  C   C256      1.0  0.71284  0.25105  0.26012  1.0000
  C   C257      1.0  0.68919  0.24737  0.25879  1.0000
  C   C258      1.0  0.67522  0.24203  0.33925  1.0000
  C   C259      1.0  0.68597  0.24019  0.42098  1.0000
  C   C260      1.0  0.70979  0.24430  0.42269  1.0000
  C   C261      1.0  0.76641  0.30117  0.27369  1.0000
  C   C262      1.0  0.77006  0.32482  0.27581  1.0000
  C   C263      1.0  0.76830  0.33550  0.35795  1.0000
  C   C264      1.0  0.76448  0.32193  0.43880  1.0000
  C   C265      1.0  0.76087  0.29829  0.43680  1.0000
  C   C266      1.0  0.77694  0.24957  0.27753  1.0000
  C   C267      1.0  0.78969  0.23677  0.28057  1.0000
  C   C268      1.0  0.78851  0.22273  0.35724  1.0000
  C   C269      1.0  0.77323  0.22159  0.42946  1.0000
  C   C270      1.0  0.76053  0.23440  0.42665  1.0000
  H   H139      1.0  0.77224  0.33344  0.21501  1.0000
  H   H140      1.0  0.76555  0.29335  0.21215  1.0000
  H   H141      1.0  0.75616  0.28838  0.49545  1.0000
  H   H142      1.0  0.76334  0.32868  0.50032  1.0000
  H   H143      1.0  0.72290  0.25659  0.20187  1.0000
  H   H144      1.0  0.68309  0.25054  0.19912  1.0000
  H   H145      1.0  0.77843  0.25958  0.22118  1.0000
  H   H146      1.0  0.80032  0.23820  0.22622  1.0000
  H   H147      1.0  0.77069  0.21089  0.48470  1.0000
  H   H148      1.0  0.74988  0.23316  0.48054  1.0000
  H   H149      1.0  0.71757  0.24489  0.48403  1.0000
  H   H150      1.0  0.67693  0.23700  0.48137  1.0000
  C   C271      1.0  0.21880  0.41816  0.35987  1.0000
  C   C272      1.0  0.19245  0.36643  0.34914  1.0000
  N   N43       1.0  0.20313  0.37884  0.42690  1.0000
  C   C273      1.0  0.21579  0.40333  0.43655  1.0000
  C   C274      1.0  0.22565  0.41133  0.51560  1.0000
  N   N44       1.0  0.23435  0.41832  0.58552  1.0000
  C   C275      1.0  0.59293  0.79266  0.35985  1.0000
  C   C276      1.0  0.64466  0.81803  0.34908  1.0000
  N   N45       1.0  0.63226  0.81630  0.42686  1.0000
  C   C277      1.0  0.60776  0.80447  0.43653  1.0000
  C   C278      1.0  0.59976  0.80631  0.51560  1.0000
  N   N46       1.0  0.59278  0.80800  0.58555  1.0000
  C   C279      1.0  0.21842  0.79229  0.35981  1.0000
  C   C280      1.0  0.19305  0.81864  0.34902  1.0000
  N   N47       1.0  0.19478  0.80797  0.42681  1.0000
  C   C281      1.0  0.20661  0.79531  0.43648  1.0000
  C   C282      1.0  0.20476  0.78547  0.51556  1.0000
  N   N48       1.0  0.20306  0.77678  0.58550  1.0000
  C   C283      1.0  0.80128  0.58394  0.35983  1.0000
  C   C284      1.0  0.82764  0.63566  0.34904  1.0000
  N   N49       1.0  0.81698  0.62327  0.42684  1.0000
  C   C285      1.0  0.80433  0.59877  0.43653  1.0000
  C   C286      1.0  0.79448  0.59078  0.51559  1.0000
  N   N50       1.0  0.78578  0.58381  0.58553  1.0000
  C   C287      1.0  0.42720  0.20937  0.35996  1.0000
  C   C288      1.0  0.37548  0.18403  0.34919  1.0000
  N   N51       1.0  0.38787  0.18572  0.42694  1.0000
  C   C289      1.0  0.41237  0.19756  0.43663  1.0000
  C   C290      1.0  0.42036  0.19562  0.51559  1.0000
  N   N52       1.0  0.42733  0.19384  0.58544  1.0000
  C   C291      1.0  0.80172  0.20981  0.35941  1.0000
  C   C292      1.0  0.82710  0.18347  0.34878  1.0000
  N   N53       1.0  0.82511  0.19389  0.42680  1.0000
  C   C293      1.0  0.81323  0.20651  0.43644  1.0000
  C   C294      1.0  0.81486  0.21614  0.51579  1.0000
  N   N54       1.0  0.81637  0.22463  0.58600  1.0000
  N   N55       1.0  0.20338  0.20825  0.42423  1.0000
  C   C295      1.0  0.21620  0.19656  0.43329  1.0000
  H   H151      1.0  0.22347  0.19698  0.49532  1.0000
  N   N56       1.0  0.80283  0.98716  0.42410  1.0000
  C   C296      1.0  0.81453  0.01167  0.43316  1.0000
  H   H152      1.0  0.81409  0.01852  0.49517  1.0000
  N   N57       1.0  0.02395  0.80773  0.42406  1.0000
  C   C297      1.0  0.99944  0.79493  0.43314  1.0000
  H   H153      1.0  0.99260  0.78765  0.49516  1.0000
  N   N58       1.0  0.81673  0.79383  0.42412  1.0000
  C   C298      1.0  0.80392  0.80553  0.43319  1.0000
  H   H154      1.0  0.79663  0.80509  0.49521  1.0000
  N   N59       1.0  0.21728  0.01494  0.42414  1.0000
  C   C299      1.0  0.20558  0.99043  0.43319  1.0000
  H   H155      1.0  0.20602  0.98358  0.49519  1.0000
  N   N60       1.0  0.99617  0.19438  0.42420  1.0000
  C   C300      1.0  0.02067  0.20719  0.43327  1.0000
  H   H156      1.0  0.02752  0.21450  0.49526  1.0000
  N   N61       1.0  0.25996  0.61396  0.41409  1.0000
  C   C301      1.0  0.26092  0.63554  0.42450  1.0000
  H   H157      1.0  0.26962  0.64575  0.48008  1.0000
  N   N62       1.0  0.39714  0.63799  0.41418  1.0000
  C   C302      1.0  0.37557  0.61735  0.42464  1.0000
  H   H158      1.0  0.36535  0.61585  0.48019  1.0000
  N   N63       1.0  0.37308  0.75114  0.41412  1.0000
  C   C303      1.0  0.39371  0.75021  0.42456  1.0000
  H   H159      1.0  0.39520  0.74147  0.48007  1.0000
  N   N64       1.0  0.76039  0.38829  0.41433  1.0000
  C   C304      1.0  0.75948  0.36673  0.42489  1.0000
  H   H160      1.0  0.75081  0.35656  0.48061  1.0000
  N   N65       1.0  0.62295  0.36403  0.41445  1.0000
  C   C305      1.0  0.64453  0.38467  0.42492  1.0000
  H   H161      1.0  0.65474  0.38616  0.48048  1.0000
  N   N66       1.0  0.64695  0.25059  0.41360  1.0000
  C   C306      1.0  0.62629  0.25145  0.42437  1.0000
  H   H162      1.0  0.62468  0.25987  0.48066  1.0000
