data_image0
_chemical_formula_structural       C15H12C4NC2NCH2CH2C4NC2NH4C2NC2NC5NC3NC17H14C2H2CH3CH3C2H2C2H3C2H3C15H12C4NC2NCH2CH2C4NC2NH4C2NC2NC5NC3NC17H14C2H2CH3CH3C2H2C2H3C2H3C15H12C4NC2NCH2CH2C4NC2NH4C2NC2NC5NC3NC17H14C2H2CH3CH3C2H2C2H3C2H3C15H12C4NC2NCH2CH2C4NC2NH4C2NC2NC5NC3NC17H14C2H2CH3CH3C2H2C2H3C2H3
_chemical_formula_sum              "C272 H200 N32"
_cell_length_a       42.98
_cell_length_b       42.98
_cell_length_c       15.0023
_cell_angle_alpha    90
_cell_angle_beta     90
_cell_angle_gamma    90

_space_group_name_H-M_alt    "P 1"
_space_group_IT_number       1

loop_
  _space_group_symop_operation_xyz
  'x, y, z'

loop_
  _atom_site_type_symbol
  _atom_site_label
  _atom_site_symmetry_multiplicity
  _atom_site_fract_x
  _atom_site_fract_y
  _atom_site_fract_z
  _atom_site_occupancy
  C   C1        1.0  0.42961  0.46880  0.32923  1.0000
  C   C2        1.0  0.02543  0.43160  0.35015  1.0000
  C   C3        1.0  0.49450  0.07948  0.31751  1.0000
  C   C4        1.0  0.46528  0.06413  0.31307  1.0000
  C   C5        1.0  0.41387  0.05577  0.30435  1.0000
  C   C6        1.0  0.43636  0.07857  0.30354  1.0000
  C   C7        1.0  0.33054  0.48421  0.25062  1.0000
  C   C8        1.0  0.36327  0.48429  0.25042  1.0000
  C   C9        1.0  0.49440  0.11278  0.31570  1.0000
  C   C10       1.0  0.48549  0.16213  0.23776  1.0000
  C   C11       1.0  0.48668  0.12937  0.23746  1.0000
  C   C12       1.0  0.12612  0.01439  0.26677  1.0000
  C   C13       1.0  0.15875  0.01659  0.26358  1.0000
  C   C14       1.0  0.01279  0.36625  0.27639  1.0000
  C   C15       1.0  0.01342  0.33359  0.27415  1.0000
  H   H1        1.0  0.02895  0.32392  0.23113  1.0000
  H   H2        1.0  0.02586  0.37822  0.23078  1.0000
  H   H3        1.0  0.43356  0.39400  0.32261  1.0000
  H   H4        1.0  0.11343  0.02507  0.21778  1.0000
  H   H5        1.0  0.16795  0.03021  0.21459  1.0000
  H   H6        1.0  0.05636  0.10213  0.34362  1.0000
  H   H7        1.0  0.39062  0.06001  0.29701  1.0000
  H   H8        1.0  0.43179  0.10178  0.29703  1.0000
  H   H9        1.0  0.48100  0.11765  0.18033  1.0000
  H   H10       1.0  0.47815  0.17296  0.18089  1.0000
  H   H11       1.0  0.37476  0.47360  0.19907  1.0000
  H   H12       1.0  0.31953  0.47218  0.20114  1.0000
  C   C16       1.0  0.99250  0.28122  0.32106  1.0000
  C   C17       1.0  0.00048  0.26455  0.24194  1.0000
  C   C18       1.0  0.00298  0.23156  0.24103  1.0000
  C   C19       1.0  0.99346  0.21329  0.31496  1.0000
  N   N1        1.0  0.01618  0.21844  0.16788  1.0000
  C   C20       1.0  0.02475  0.23354  0.09219  1.0000
  C   C21       1.0  0.01790  0.26583  0.08769  1.0000
  N   N2        1.0  0.00664  0.27900  0.16341  1.0000
  C   C22       1.0  0.04210  0.21471  0.02571  1.0000
  H   H13       1.0  0.54706  0.19171  0.05372  1.0000
  H   H14       1.0  0.06466  0.22543  0.01332  1.0000
  C   C23       1.0  0.02217  0.28717  0.01044  1.0000
  H   H15       1.0  0.01145  0.30964  0.02580  1.0000
  H   H16       1.0  0.06998  0.29986  0.04360  1.0000
  C   C24       1.0  0.21186  0.00133  0.31963  1.0000
  C   C25       1.0  0.22878  0.00327  0.23807  1.0000
  C   C26       1.0  0.26190  0.00425  0.23646  1.0000
  C   C27       1.0  0.27970  0.00105  0.31574  1.0000
  N   N3        1.0  0.27582  0.00842  0.15601  1.0000
  C   C28       1.0  0.26105  0.01047  0.07628  1.0000
  C   C29       1.0  0.22818  0.00763  0.07714  1.0000
  N   N4        1.0  0.21428  0.00420  0.15774  1.0000
  H   H17       1.0  0.29590  0.53488  0.00649  1.0000
  H   H18       1.0  0.31754  0.98156  0.03354  1.0000
  H   H19       1.0  0.18491  0.99818  0.01499  1.0000
  H   H20       1.0  0.19048  0.05565  0.01297  1.0000
  C   C30       1.0  0.43819  0.41721  0.32800  1.0000
  C   C31       1.0  0.41535  0.43963  0.32647  1.0000
  N   N5        1.0  0.46053  0.46273  0.33762  1.0000
  C   C32       1.0  0.46707  0.43178  0.33814  1.0000
  C   C33       1.0  0.49618  0.41595  0.34599  1.0000
  N   N6        1.0  0.03143  0.46251  0.34513  1.0000
  C   C34       1.0  0.06235  0.46880  0.34550  1.0000
  C   C35       1.0  0.07707  0.43989  0.35026  1.0000
  C   C36       1.0  0.05450  0.41733  0.35798  1.0000
  C   C37       1.0  0.07739  0.49833  0.34228  1.0000
  C   C38       1.0  0.06088  0.02713  0.34057  1.0000
  N   N7        1.0  0.03005  0.03295  0.32971  1.0000
  C   C39       1.0  0.02347  0.06387  0.32903  1.0000
  C   C40       1.0  0.05206  0.07877  0.34103  1.0000
  C   C41       1.0  0.07472  0.05636  0.35036  1.0000
  N   N8        1.0  0.45939  0.03334  0.32096  1.0000
  C   C42       1.0  0.42858  0.02711  0.31702  1.0000
  C   C43       1.0  0.41350  0.49773  0.32296  1.0000
  C   C44       1.0  0.38010  0.49764  0.32168  1.0000
  C   C45       1.0  0.36308  0.01195  0.39111  1.0000
  C   C46       1.0  0.33044  0.01391  0.38742  1.0000
  C   C47       1.0  0.31323  0.49991  0.31737  1.0000
  C   C48       1.0  0.00099  0.12987  0.39375  1.0000
  C   C49       1.0  0.00122  0.16255  0.39221  1.0000
  C   C50       1.0  0.49356  0.17968  0.31451  1.0000
  C   C51       1.0  0.11089  0.49935  0.33837  1.0000
  C   C52       1.0  0.17812  0.50111  0.32614  1.0000
  C   C53       1.0  0.16244  0.48569  0.39702  1.0000
  C   C54       1.0  0.12981  0.48608  0.40535  1.0000
  C   C55       1.0  0.49617  0.38238  0.34317  1.0000
  C   C56       1.0  0.47917  0.36420  0.40484  1.0000
  C   C57       1.0  0.47683  0.33167  0.39498  1.0000
  C   C58       1.0  0.49397  0.31501  0.32930  1.0000
  H   H21       1.0  0.46191  0.32048  0.43706  1.0000
  H   H22       1.0  0.46669  0.37479  0.45441  1.0000
  H   H23       1.0  0.39222  0.43465  0.32073  1.0000
  H   H24       1.0  0.47605  0.47867  0.34462  1.0000
  H   H25       1.0  0.01495  0.01708  0.31642  1.0000
  H   H26       1.0  0.05930  0.39417  0.36438  1.0000
  H   H27       1.0  0.10033  0.43519  0.35063  1.0000
  H   H28       1.0  0.11987  0.47535  0.45919  1.0000
  H   H29       1.0  0.17453  0.47357  0.44422  1.0000
  H   H30       1.0  0.09764  0.06124  0.36174  1.0000
  H   H31       1.0  0.00639  0.11862  0.45189  1.0000
  H   H32       1.0  0.00724  0.17372  0.44939  1.0000
  H   H33       1.0  0.31939  0.02603  0.43680  1.0000
  H   H34       1.0  0.37446  0.02222  0.44337  1.0000
  C   C59       1.0  0.48336  0.22982  0.39123  1.0000
  C   C60       1.0  0.48413  0.26249  0.39529  1.0000
  H   H35       1.0  0.47871  0.27222  0.45534  1.0000
  H   H36       1.0  0.47571  0.21817  0.44649  1.0000
  C   C61       1.0  0.02519  0.20914  0.60333  1.0000
  H   H37       1.0  0.52331  0.23045  0.56465  1.0000
  H   H38       1.0  0.00199  0.19960  0.61483  1.0000
  H   H39       1.0  0.03868  0.19250  0.56433  1.0000
  C   C62       1.0  0.05630  0.29401  0.65127  1.0000
  H   H40       1.0  0.50960  0.27812  0.61963  1.0000
  H   H41       1.0  0.05706  0.31372  0.60538  1.0000
  H   H42       1.0  0.56686  0.27419  0.61774  1.0000
  C   C63       1.0  0.26278  0.49854  0.39617  1.0000
  C   C64       1.0  0.23015  0.49962  0.39805  1.0000
  H   H43       1.0  0.21992  0.49917  0.45915  1.0000
  H   H44       1.0  0.27408  0.49553  0.45536  1.0000
  C   C65       1.0  0.28104  0.01454  0.66305  1.0000
  C   C66       1.0  0.30179  0.98588  0.64454  1.0000
  H   H45       1.0  0.26723  0.01899  0.60362  1.0000
  H   H46       1.0  0.28744  0.46525  0.63370  1.0000
  H   H47       1.0  0.31580  0.98990  0.58501  1.0000
  C   C67       1.0  0.20755  0.00820  0.66465  1.0000
  C   C68       1.0  0.20173  0.04141  0.62870  1.0000
  H   H48       1.0  0.21744  0.49339  0.61297  1.0000
  H   H49       1.0  0.18645  0.04030  0.57064  1.0000
  H   H50       1.0  0.22339  0.55266  0.60887  1.0000
  C   C69       1.0  0.42961  0.96880  0.32923  1.0000
  C   C70       1.0  0.02543  0.93160  0.35015  1.0000
  C   C71       1.0  0.49450  0.57948  0.31751  1.0000
  C   C72       1.0  0.46528  0.56413  0.31307  1.0000
  C   C73       1.0  0.41387  0.55577  0.30435  1.0000
  C   C74       1.0  0.43636  0.57857  0.30354  1.0000
  C   C75       1.0  0.33054  0.98420  0.25062  1.0000
  C   C76       1.0  0.36327  0.98429  0.25042  1.0000
  C   C77       1.0  0.49440  0.61278  0.31570  1.0000
  C   C78       1.0  0.48549  0.66213  0.23776  1.0000
  C   C79       1.0  0.48668  0.62938  0.23746  1.0000
  C   C80       1.0  0.12612  0.51439  0.26677  1.0000
  C   C81       1.0  0.15875  0.51659  0.26358  1.0000
  C   C82       1.0  0.01279  0.86625  0.27639  1.0000
  C   C83       1.0  0.01342  0.83359  0.27415  1.0000
  H   H51       1.0  0.02895  0.82391  0.23113  1.0000
  H   H52       1.0  0.02586  0.87822  0.23078  1.0000
  H   H53       1.0  0.43356  0.89400  0.32261  1.0000
  H   H54       1.0  0.11343  0.52507  0.21778  1.0000
  H   H55       1.0  0.16795  0.53021  0.21459  1.0000
  H   H56       1.0  0.05636  0.60213  0.34362  1.0000
  H   H57       1.0  0.39062  0.56001  0.29701  1.0000
  H   H58       1.0  0.43179  0.60177  0.29703  1.0000
  H   H59       1.0  0.48100  0.61765  0.18033  1.0000
  H   H60       1.0  0.47815  0.67296  0.18089  1.0000
  H   H61       1.0  0.37476  0.97360  0.19907  1.0000
  H   H62       1.0  0.31953  0.97218  0.20114  1.0000
  C   C84       1.0  0.99250  0.78122  0.32106  1.0000
  C   C85       1.0  0.00048  0.76455  0.24194  1.0000
  C   C86       1.0  0.00298  0.73156  0.24103  1.0000
  C   C87       1.0  0.99346  0.71329  0.31496  1.0000
  N   N9        1.0  0.01618  0.71844  0.16788  1.0000
  C   C88       1.0  0.02475  0.73354  0.09219  1.0000
  C   C89       1.0  0.01790  0.76583  0.08769  1.0000
  N   N10       1.0  0.00664  0.77900  0.16341  1.0000
  C   C90       1.0  0.04210  0.71471  0.02571  1.0000
  H   H63       1.0  0.54706  0.69171  0.05372  1.0000
  H   H64       1.0  0.06466  0.72543  0.01332  1.0000
  C   C91       1.0  0.02217  0.78717  0.01044  1.0000
  H   H65       1.0  0.01145  0.80964  0.02580  1.0000
  H   H66       1.0  0.06998  0.79986  0.04360  1.0000
  C   C92       1.0  0.21186  0.50133  0.31963  1.0000
  C   C93       1.0  0.22878  0.50327  0.23807  1.0000
  C   C94       1.0  0.26190  0.50425  0.23646  1.0000
  C   C95       1.0  0.27970  0.50106  0.31574  1.0000
  N   N11       1.0  0.27582  0.50842  0.15601  1.0000
  C   C96       1.0  0.26105  0.51048  0.07628  1.0000
  C   C97       1.0  0.22818  0.50763  0.07714  1.0000
  N   N12       1.0  0.21428  0.50420  0.15774  1.0000
  H   H67       1.0  0.29590  0.03488  0.00649  1.0000
  H   H68       1.0  0.31754  0.48156  0.03354  1.0000
  H   H69       1.0  0.18491  0.49819  0.01499  1.0000
  H   H70       1.0  0.19048  0.55565  0.01297  1.0000
  C   C98       1.0  0.43819  0.91721  0.32800  1.0000
  C   C99       1.0  0.41535  0.93963  0.32647  1.0000
  N   N13       1.0  0.46053  0.96273  0.33762  1.0000
  C   C100      1.0  0.46707  0.93178  0.33814  1.0000
  C   C101      1.0  0.49618  0.91595  0.34599  1.0000
  N   N14       1.0  0.03143  0.96251  0.34513  1.0000
  C   C102      1.0  0.06235  0.96880  0.34550  1.0000
  C   C103      1.0  0.07707  0.93988  0.35026  1.0000
  C   C104      1.0  0.05450  0.91733  0.35798  1.0000
  C   C105      1.0  0.07739  0.99833  0.34228  1.0000
  C   C106      1.0  0.06088  0.52712  0.34057  1.0000
  N   N15       1.0  0.03005  0.53295  0.32971  1.0000
  C   C107      1.0  0.02347  0.56387  0.32903  1.0000
  C   C108      1.0  0.05206  0.57877  0.34103  1.0000
  C   C109      1.0  0.07472  0.55636  0.35036  1.0000
  N   N16       1.0  0.45939  0.53334  0.32096  1.0000
  C   C110      1.0  0.42858  0.52711  0.31702  1.0000
  C   C111      1.0  0.41350  0.99773  0.32296  1.0000
  C   C112      1.0  0.38010  0.99763  0.32168  1.0000
  C   C113      1.0  0.36308  0.51195  0.39111  1.0000
  C   C114      1.0  0.33044  0.51391  0.38742  1.0000
  C   C115      1.0  0.31323  0.99991  0.31737  1.0000
  C   C116      1.0  0.00099  0.62987  0.39375  1.0000
  C   C117      1.0  0.00122  0.66255  0.39221  1.0000
  C   C118      1.0  0.49356  0.67968  0.31451  1.0000
  C   C119      1.0  0.11089  0.99935  0.33837  1.0000
  C   C120      1.0  0.17812  0.00111  0.32614  1.0000
  C   C121      1.0  0.16244  0.98569  0.39702  1.0000
  C   C122      1.0  0.12981  0.98608  0.40535  1.0000
  C   C123      1.0  0.49617  0.88238  0.34317  1.0000
  C   C124      1.0  0.47917  0.86420  0.40484  1.0000
  C   C125      1.0  0.47683  0.83167  0.39498  1.0000
  C   C126      1.0  0.49397  0.81501  0.32930  1.0000
  H   H71       1.0  0.46191  0.82048  0.43706  1.0000
  H   H72       1.0  0.46669  0.87479  0.45441  1.0000
  H   H73       1.0  0.39222  0.93465  0.32073  1.0000
  H   H74       1.0  0.47605  0.97867  0.34462  1.0000
  H   H75       1.0  0.01495  0.51708  0.31642  1.0000
  H   H76       1.0  0.05930  0.89417  0.36438  1.0000
  H   H77       1.0  0.10033  0.93519  0.35063  1.0000
  H   H78       1.0  0.11987  0.97535  0.45919  1.0000
  H   H79       1.0  0.17453  0.97356  0.44422  1.0000
  H   H80       1.0  0.09764  0.56124  0.36174  1.0000
  H   H81       1.0  0.00639  0.61862  0.45189  1.0000
  H   H82       1.0  0.00724  0.67372  0.44939  1.0000
  H   H83       1.0  0.31939  0.52603  0.43680  1.0000
  H   H84       1.0  0.37446  0.52222  0.44337  1.0000
  C   C127      1.0  0.48336  0.72982  0.39123  1.0000
  C   C128      1.0  0.48413  0.76249  0.39529  1.0000
  H   H85       1.0  0.47871  0.77222  0.45534  1.0000
  H   H86       1.0  0.47571  0.71817  0.44649  1.0000
  C   C129      1.0  0.02519  0.70914  0.60333  1.0000
  H   H87       1.0  0.52331  0.73045  0.56465  1.0000
  H   H88       1.0  0.00199  0.69960  0.61483  1.0000
  H   H89       1.0  0.03868  0.69250  0.56433  1.0000
  C   C130      1.0  0.05630  0.79401  0.65127  1.0000
  H   H90       1.0  0.50960  0.77812  0.61963  1.0000
  H   H91       1.0  0.05706  0.81372  0.60538  1.0000
  H   H92       1.0  0.56686  0.77419  0.61774  1.0000
  C   C131      1.0  0.26278  0.99855  0.39617  1.0000
  C   C132      1.0  0.23015  0.99962  0.39805  1.0000
  H   H93       1.0  0.21992  0.99917  0.45915  1.0000
  H   H94       1.0  0.27408  0.99553  0.45536  1.0000
  C   C133      1.0  0.28104  0.51454  0.66305  1.0000
  C   C134      1.0  0.30179  0.48588  0.64454  1.0000
  H   H95       1.0  0.26723  0.51899  0.60362  1.0000
  H   H96       1.0  0.28744  0.96525  0.63370  1.0000
  H   H97       1.0  0.31580  0.48990  0.58501  1.0000
  C   C135      1.0  0.20755  0.50820  0.66465  1.0000
  C   C136      1.0  0.20173  0.54141  0.62870  1.0000
  H   H98       1.0  0.21744  0.99340  0.61297  1.0000
  H   H99       1.0  0.18645  0.54030  0.57064  1.0000
  H   H100      1.0  0.22339  0.05266  0.60887  1.0000
  C   C137      1.0  0.92961  0.46880  0.32923  1.0000
  C   C138      1.0  0.52542  0.43160  0.35015  1.0000
  C   C139      1.0  0.99450  0.07948  0.31751  1.0000
  C   C140      1.0  0.96528  0.06413  0.31307  1.0000
  C   C141      1.0  0.91387  0.05577  0.30435  1.0000
  C   C142      1.0  0.93636  0.07857  0.30354  1.0000
  C   C143      1.0  0.83054  0.48421  0.25062  1.0000
  C   C144      1.0  0.86327  0.48429  0.25042  1.0000
  C   C145      1.0  0.99440  0.11278  0.31570  1.0000
  C   C146      1.0  0.98549  0.16213  0.23776  1.0000
  C   C147      1.0  0.98668  0.12937  0.23746  1.0000
  C   C148      1.0  0.62612  0.01439  0.26677  1.0000
  C   C149      1.0  0.65875  0.01659  0.26358  1.0000
  C   C150      1.0  0.51279  0.36625  0.27639  1.0000
  C   C151      1.0  0.51342  0.33359  0.27415  1.0000
  H   H101      1.0  0.52895  0.32392  0.23113  1.0000
  H   H102      1.0  0.52586  0.37822  0.23078  1.0000
  H   H103      1.0  0.93356  0.39400  0.32261  1.0000
  H   H104      1.0  0.61343  0.02507  0.21778  1.0000
  H   H105      1.0  0.66795  0.03021  0.21459  1.0000
  H   H106      1.0  0.55636  0.10213  0.34362  1.0000
  H   H107      1.0  0.89062  0.06001  0.29701  1.0000
  H   H108      1.0  0.93179  0.10178  0.29703  1.0000
  H   H109      1.0  0.98100  0.11765  0.18033  1.0000
  H   H110      1.0  0.97816  0.17296  0.18089  1.0000
  H   H111      1.0  0.87476  0.47360  0.19907  1.0000
  H   H112      1.0  0.81953  0.47218  0.20114  1.0000
  C   C152      1.0  0.49250  0.28122  0.32106  1.0000
  C   C153      1.0  0.50048  0.26455  0.24194  1.0000
  C   C154      1.0  0.50298  0.23156  0.24103  1.0000
  C   C155      1.0  0.49346  0.21329  0.31496  1.0000
  N   N17       1.0  0.51618  0.21844  0.16788  1.0000
  C   C156      1.0  0.52475  0.23354  0.09219  1.0000
  C   C157      1.0  0.51790  0.26583  0.08769  1.0000
  N   N18       1.0  0.50664  0.27900  0.16341  1.0000
  C   C158      1.0  0.54210  0.21471  0.02571  1.0000
  H   H113      1.0  0.04706  0.19171  0.05372  1.0000
  H   H114      1.0  0.56466  0.22543  0.01332  1.0000
  C   C159      1.0  0.52217  0.28717  0.01044  1.0000
  H   H115      1.0  0.51145  0.30964  0.02580  1.0000
  H   H116      1.0  0.56998  0.29986  0.04360  1.0000
  C   C160      1.0  0.71186  0.00133  0.31963  1.0000
  C   C161      1.0  0.72878  0.00327  0.23807  1.0000
  C   C162      1.0  0.76190  0.00425  0.23646  1.0000
  C   C163      1.0  0.77970  0.00105  0.31574  1.0000
  N   N19       1.0  0.77582  0.00842  0.15601  1.0000
  C   C164      1.0  0.76105  0.01047  0.07628  1.0000
  C   C165      1.0  0.72818  0.00763  0.07714  1.0000
  N   N20       1.0  0.71428  0.00420  0.15774  1.0000
  H   H117      1.0  0.79589  0.53488  0.00649  1.0000
  H   H118      1.0  0.81754  0.98156  0.03354  1.0000
  H   H119      1.0  0.68491  0.99818  0.01499  1.0000
  H   H120      1.0  0.69048  0.05565  0.01297  1.0000
  C   C166      1.0  0.93819  0.41721  0.32800  1.0000
  C   C167      1.0  0.91535  0.43963  0.32647  1.0000
  N   N21       1.0  0.96053  0.46273  0.33762  1.0000
  C   C168      1.0  0.96707  0.43178  0.33814  1.0000
  C   C169      1.0  0.99618  0.41595  0.34599  1.0000
  N   N22       1.0  0.53142  0.46251  0.34513  1.0000
  C   C170      1.0  0.56235  0.46880  0.34550  1.0000
  C   C171      1.0  0.57707  0.43989  0.35026  1.0000
  C   C172      1.0  0.55450  0.41733  0.35798  1.0000
  C   C173      1.0  0.57739  0.49833  0.34228  1.0000
  C   C174      1.0  0.56088  0.02713  0.34057  1.0000
  N   N23       1.0  0.53005  0.03295  0.32971  1.0000
  C   C175      1.0  0.52347  0.06387  0.32903  1.0000
  C   C176      1.0  0.55206  0.07877  0.34103  1.0000
  C   C177      1.0  0.57472  0.05636  0.35036  1.0000
  N   N24       1.0  0.95939  0.03334  0.32096  1.0000
  C   C178      1.0  0.92858  0.02711  0.31702  1.0000
  C   C179      1.0  0.91350  0.49773  0.32296  1.0000
  C   C180      1.0  0.88010  0.49764  0.32168  1.0000
  C   C181      1.0  0.86308  0.01195  0.39111  1.0000
  C   C182      1.0  0.83044  0.01391  0.38742  1.0000
  C   C183      1.0  0.81324  0.49991  0.31737  1.0000
  C   C184      1.0  0.50099  0.12987  0.39375  1.0000
  C   C185      1.0  0.50122  0.16255  0.39221  1.0000
  C   C186      1.0  0.99356  0.17968  0.31451  1.0000
  C   C187      1.0  0.61089  0.49935  0.33837  1.0000
  C   C188      1.0  0.67812  0.50111  0.32614  1.0000
  C   C189      1.0  0.66244  0.48569  0.39702  1.0000
  C   C190      1.0  0.62981  0.48608  0.40535  1.0000
  C   C191      1.0  0.99617  0.38238  0.34317  1.0000
  C   C192      1.0  0.97917  0.36420  0.40484  1.0000
  C   C193      1.0  0.97683  0.33167  0.39498  1.0000
  C   C194      1.0  0.99397  0.31501  0.32930  1.0000
  H   H121      1.0  0.96190  0.32048  0.43706  1.0000
  H   H122      1.0  0.96668  0.37479  0.45441  1.0000
  H   H123      1.0  0.89222  0.43465  0.32073  1.0000
  H   H124      1.0  0.97605  0.47867  0.34462  1.0000
  H   H125      1.0  0.51495  0.01708  0.31642  1.0000
  H   H126      1.0  0.55930  0.39417  0.36438  1.0000
  H   H127      1.0  0.60033  0.43519  0.35063  1.0000
  H   H128      1.0  0.61987  0.47535  0.45919  1.0000
  H   H129      1.0  0.67453  0.47357  0.44422  1.0000
  H   H130      1.0  0.59764  0.06124  0.36174  1.0000
  H   H131      1.0  0.50639  0.11862  0.45189  1.0000
  H   H132      1.0  0.50724  0.17372  0.44939  1.0000
  H   H133      1.0  0.81939  0.02603  0.43680  1.0000
  H   H134      1.0  0.87446  0.02222  0.44337  1.0000
  C   C195      1.0  0.98336  0.22982  0.39123  1.0000
  C   C196      1.0  0.98413  0.26249  0.39529  1.0000
  H   H135      1.0  0.97871  0.27222  0.45534  1.0000
  H   H136      1.0  0.97571  0.21817  0.44649  1.0000
  C   C197      1.0  0.52519  0.20914  0.60333  1.0000
  H   H137      1.0  0.02331  0.23045  0.56465  1.0000
  H   H138      1.0  0.50199  0.19960  0.61483  1.0000
  H   H139      1.0  0.53868  0.19250  0.56433  1.0000
  C   C198      1.0  0.55630  0.29401  0.65127  1.0000
  H   H140      1.0  0.00960  0.27812  0.61963  1.0000
  H   H141      1.0  0.55706  0.31372  0.60538  1.0000
  H   H142      1.0  0.06686  0.27419  0.61774  1.0000
  C   C199      1.0  0.76278  0.49854  0.39617  1.0000
  C   C200      1.0  0.73015  0.49962  0.39805  1.0000
  H   H143      1.0  0.71992  0.49917  0.45915  1.0000
  H   H144      1.0  0.77408  0.49553  0.45536  1.0000
  C   C201      1.0  0.78105  0.01454  0.66305  1.0000
  C   C202      1.0  0.80178  0.98588  0.64454  1.0000
  H   H145      1.0  0.76723  0.01899  0.60362  1.0000
  H   H146      1.0  0.78744  0.46525  0.63370  1.0000
  H   H147      1.0  0.81580  0.98990  0.58501  1.0000
  C   C203      1.0  0.70755  0.00820  0.66465  1.0000
  C   C204      1.0  0.70173  0.04141  0.62870  1.0000
  H   H148      1.0  0.71744  0.49339  0.61297  1.0000
  H   H149      1.0  0.68645  0.04030  0.57064  1.0000
  H   H150      1.0  0.72339  0.55266  0.60887  1.0000
  C   C205      1.0  0.92961  0.96880  0.32923  1.0000
  C   C206      1.0  0.52542  0.93160  0.35015  1.0000
  C   C207      1.0  0.99450  0.57948  0.31751  1.0000
  C   C208      1.0  0.96528  0.56413  0.31307  1.0000
  C   C209      1.0  0.91387  0.55577  0.30435  1.0000
  C   C210      1.0  0.93636  0.57857  0.30354  1.0000
  C   C211      1.0  0.83054  0.98420  0.25062  1.0000
  C   C212      1.0  0.86327  0.98429  0.25042  1.0000
  C   C213      1.0  0.99440  0.61278  0.31570  1.0000
  C   C214      1.0  0.98549  0.66213  0.23776  1.0000
  C   C215      1.0  0.98668  0.62938  0.23746  1.0000
  C   C216      1.0  0.62612  0.51439  0.26677  1.0000
  C   C217      1.0  0.65875  0.51659  0.26358  1.0000
  C   C218      1.0  0.51279  0.86625  0.27639  1.0000
  C   C219      1.0  0.51342  0.83359  0.27415  1.0000
  H   H151      1.0  0.52895  0.82391  0.23113  1.0000
  H   H152      1.0  0.52586  0.87822  0.23078  1.0000
  H   H153      1.0  0.93356  0.89400  0.32261  1.0000
  H   H154      1.0  0.61343  0.52507  0.21778  1.0000
  H   H155      1.0  0.66795  0.53021  0.21459  1.0000
  H   H156      1.0  0.55636  0.60213  0.34362  1.0000
  H   H157      1.0  0.89062  0.56001  0.29701  1.0000
  H   H158      1.0  0.93179  0.60177  0.29703  1.0000
  H   H159      1.0  0.98100  0.61765  0.18033  1.0000
  H   H160      1.0  0.97816  0.67296  0.18089  1.0000
  H   H161      1.0  0.87476  0.97360  0.19907  1.0000
  H   H162      1.0  0.81953  0.97218  0.20114  1.0000
  C   C220      1.0  0.49250  0.78122  0.32106  1.0000
  C   C221      1.0  0.50048  0.76455  0.24194  1.0000
  C   C222      1.0  0.50298  0.73156  0.24103  1.0000
  C   C223      1.0  0.49346  0.71329  0.31496  1.0000
  N   N25       1.0  0.51618  0.71844  0.16788  1.0000
  C   C224      1.0  0.52475  0.73354  0.09219  1.0000
  C   C225      1.0  0.51790  0.76583  0.08769  1.0000
  N   N26       1.0  0.50664  0.77900  0.16341  1.0000
  C   C226      1.0  0.54210  0.71471  0.02571  1.0000
  H   H163      1.0  0.04706  0.69171  0.05372  1.0000
  H   H164      1.0  0.56466  0.72543  0.01332  1.0000
  C   C227      1.0  0.52217  0.78717  0.01044  1.0000
  H   H165      1.0  0.51145  0.80964  0.02580  1.0000
  H   H166      1.0  0.56998  0.79986  0.04360  1.0000
  C   C228      1.0  0.71186  0.50133  0.31963  1.0000
  C   C229      1.0  0.72878  0.50327  0.23807  1.0000
  C   C230      1.0  0.76190  0.50425  0.23646  1.0000
  C   C231      1.0  0.77970  0.50106  0.31574  1.0000
  N   N27       1.0  0.77582  0.50842  0.15601  1.0000
  C   C232      1.0  0.76105  0.51048  0.07628  1.0000
  C   C233      1.0  0.72818  0.50763  0.07714  1.0000
  N   N28       1.0  0.71428  0.50420  0.15774  1.0000
  H   H167      1.0  0.79589  0.03488  0.00649  1.0000
  H   H168      1.0  0.81754  0.48156  0.03354  1.0000
  H   H169      1.0  0.68491  0.49819  0.01499  1.0000
  H   H170      1.0  0.69048  0.55565  0.01297  1.0000
  C   C234      1.0  0.93819  0.91721  0.32800  1.0000
  C   C235      1.0  0.91535  0.93963  0.32647  1.0000
  N   N29       1.0  0.96053  0.96273  0.33762  1.0000
  C   C236      1.0  0.96707  0.93178  0.33814  1.0000
  C   C237      1.0  0.99618  0.91595  0.34599  1.0000
  N   N30       1.0  0.53142  0.96251  0.34513  1.0000
  C   C238      1.0  0.56235  0.96880  0.34550  1.0000
  C   C239      1.0  0.57707  0.93988  0.35026  1.0000
  C   C240      1.0  0.55450  0.91733  0.35798  1.0000
  C   C241      1.0  0.57739  0.99833  0.34228  1.0000
  C   C242      1.0  0.56088  0.52712  0.34057  1.0000
  N   N31       1.0  0.53005  0.53295  0.32971  1.0000
  C   C243      1.0  0.52347  0.56387  0.32903  1.0000
  C   C244      1.0  0.55206  0.57877  0.34103  1.0000
  C   C245      1.0  0.57472  0.55636  0.35036  1.0000
  N   N32       1.0  0.95939  0.53334  0.32096  1.0000
  C   C246      1.0  0.92858  0.52711  0.31702  1.0000
  C   C247      1.0  0.91350  0.99773  0.32296  1.0000
  C   C248      1.0  0.88010  0.99763  0.32168  1.0000
  C   C249      1.0  0.86308  0.51195  0.39111  1.0000
  C   C250      1.0  0.83044  0.51391  0.38742  1.0000
  C   C251      1.0  0.81324  0.99991  0.31737  1.0000
  C   C252      1.0  0.50099  0.62987  0.39375  1.0000
  C   C253      1.0  0.50122  0.66255  0.39221  1.0000
  C   C254      1.0  0.99356  0.67968  0.31451  1.0000
  C   C255      1.0  0.61089  0.99935  0.33837  1.0000
  C   C256      1.0  0.67812  0.00111  0.32614  1.0000
  C   C257      1.0  0.66244  0.98569  0.39702  1.0000
  C   C258      1.0  0.62981  0.98608  0.40535  1.0000
  C   C259      1.0  0.99617  0.88238  0.34317  1.0000
  C   C260      1.0  0.97917  0.86420  0.40484  1.0000
  C   C261      1.0  0.97683  0.83167  0.39498  1.0000
  C   C262      1.0  0.99397  0.81501  0.32930  1.0000
  H   H171      1.0  0.96190  0.82048  0.43706  1.0000
  H   H172      1.0  0.96668  0.87479  0.45441  1.0000
  H   H173      1.0  0.89222  0.93465  0.32073  1.0000
  H   H174      1.0  0.97605  0.97867  0.34462  1.0000
  H   H175      1.0  0.51495  0.51708  0.31642  1.0000
  H   H176      1.0  0.55930  0.89417  0.36438  1.0000
  H   H177      1.0  0.60033  0.93519  0.35063  1.0000
  H   H178      1.0  0.61987  0.97535  0.45919  1.0000
  H   H179      1.0  0.67453  0.97356  0.44422  1.0000
  H   H180      1.0  0.59764  0.56124  0.36174  1.0000
  H   H181      1.0  0.50639  0.61862  0.45189  1.0000
  H   H182      1.0  0.50724  0.67372  0.44939  1.0000
  H   H183      1.0  0.81939  0.52603  0.43680  1.0000
  H   H184      1.0  0.87446  0.52222  0.44337  1.0000
  C   C263      1.0  0.98336  0.72982  0.39123  1.0000
  C   C264      1.0  0.98413  0.76249  0.39529  1.0000
  H   H185      1.0  0.97871  0.77222  0.45534  1.0000
  H   H186      1.0  0.97571  0.71817  0.44649  1.0000
  C   C265      1.0  0.52519  0.70914  0.60333  1.0000
  H   H187      1.0  0.02331  0.73045  0.56465  1.0000
  H   H188      1.0  0.50199  0.69960  0.61483  1.0000
  H   H189      1.0  0.53868  0.69250  0.56433  1.0000
  C   C266      1.0  0.55630  0.79401  0.65127  1.0000
  H   H190      1.0  0.00960  0.77812  0.61963  1.0000
  H   H191      1.0  0.55706  0.81372  0.60538  1.0000
  H   H192      1.0  0.06686  0.77419  0.61774  1.0000
  C   C267      1.0  0.76278  0.99855  0.39617  1.0000
  C   C268      1.0  0.73015  0.99962  0.39805  1.0000
  H   H193      1.0  0.71992  0.99917  0.45915  1.0000
  H   H194      1.0  0.77408  0.99553  0.45536  1.0000
  C   C269      1.0  0.78105  0.51454  0.66305  1.0000
  C   C270      1.0  0.80178  0.48588  0.64454  1.0000
  H   H195      1.0  0.76723  0.51899  0.60362  1.0000
  H   H196      1.0  0.78744  0.96525  0.63370  1.0000
  H   H197      1.0  0.81580  0.48990  0.58501  1.0000
  C   C271      1.0  0.70755  0.50820  0.66465  1.0000
  C   C272      1.0  0.70173  0.54141  0.62870  1.0000
  H   H198      1.0  0.71744  0.99340  0.61297  1.0000
  H   H199      1.0  0.68645  0.54030  0.57064  1.0000
  H   H200      1.0  0.72339  0.05266  0.60887  1.0000
