data_image0
_chemical_formula_structural       C4HC4HN2H2C4H2C2H2N12C8H4C8H4C4H2C8H4C8H4C4H2C8H4C8H4C8H4C8H4C8H4C8H4CNCNCNC15H10CNCNCNC18H12CNCNCNC15H10CNCNCNC18H12CNCNCNC18H12CNCNCNC18H12CNCNCNC18H12CNCNCNC18H12CNCNCNC18H12CNCNCNC18H12CNCNCNC18H12CNCNCNC18H12C8H4C8H4C8H4C8H4C8H4C8H4N22
_chemical_formula_sum              "C396 H216 N72"
_cell_length_a       74.1641
_cell_length_b       74.1641
_cell_length_c       14.9775
_cell_angle_alpha    90
_cell_angle_beta     90
_cell_angle_gamma    120

_space_group_name_H-M_alt    "P 1"
_space_group_IT_number       1

loop_
  _space_group_symop_operation_xyz
  'x, y, z'

loop_
  _atom_site_type_symbol
  _atom_site_label
  _atom_site_symmetry_multiplicity
  _atom_site_fract_x
  _atom_site_fract_y
  _atom_site_fract_z
  _atom_site_occupancy
  C   C1        1.0  0.00780  0.79920  0.23740  1.0000
  C   C2        1.0  0.01835  0.80471  0.32078  1.0000
  C   C3        1.0  0.01853  0.80438  0.15467  1.0000
  C   C4        1.0  0.00759  0.79873  0.07347  1.0000
  H   H1        1.0  0.01553  0.80257  0.01428  1.0000
  C   C5        1.0  0.01835  0.20064  0.32078  1.0000
  C   C6        1.0  0.00780  0.19560  0.23741  1.0000
  C   C7        1.0  0.00760  0.19587  0.07348  1.0000
  C   C8        1.0  0.01853  0.20116  0.15468  1.0000
  H   H2        1.0  0.01554  0.19996  0.01430  1.0000
  N   N1        1.0  0.00683  0.79918  0.39668  1.0000
  N   N2        1.0  0.00683  0.19465  0.39669  1.0000
  H   H3        1.0  0.03444  0.81235  0.15230  1.0000
  H   H4        1.0  0.03445  0.20910  0.15232  1.0000
  C   C9        1.0  0.04023  0.21154  0.33027  1.0000
  C   C10       1.0  0.04023  0.81570  0.33025  1.0000
  C   C11       1.0  0.05131  0.20067  0.33282  1.0000
  C   C12       1.0  0.05142  0.23349  0.33176  1.0000
  H   H5        1.0  0.04354  0.18474  0.33061  1.0000
  H   H6        1.0  0.04374  0.24173  0.32882  1.0000
  C   C13       1.0  0.05142  0.80495  0.33178  1.0000
  C   C14       1.0  0.05131  0.83765  0.33278  1.0000
  H   H7        1.0  0.04374  0.78902  0.32884  1.0000
  H   H8        1.0  0.04353  0.84581  0.33057  1.0000
  N   N3        1.0  0.19943  0.39735  0.27318  1.0000
  N   N4        1.0  0.18927  0.37703  0.27379  1.0000
  N   N5        1.0  0.59117  0.78906  0.27314  1.0000
  N   N6        1.0  0.61149  0.79923  0.27377  1.0000
  N   N7        1.0  0.19941  0.78908  0.27316  1.0000
  N   N8        1.0  0.18924  0.79924  0.27380  1.0000
  N   N9        1.0  0.79394  0.58634  0.27314  1.0000
  N   N10       1.0  0.80410  0.60666  0.27377  1.0000
  N   N11       1.0  0.40218  0.19457  0.27318  1.0000
  N   N12       1.0  0.38185  0.18441  0.27380  1.0000
  N   N13       1.0  0.79389  0.19457  0.27314  1.0000
  N   N14       1.0  0.80406  0.18441  0.27377  1.0000
  C   C15       1.0  0.20548  0.17897  0.32079  1.0000
  C   C16       1.0  0.20044  0.18448  0.23742  1.0000
  C   C17       1.0  0.18931  0.19560  0.23742  1.0000
  C   C18       1.0  0.18380  0.20065  0.32079  1.0000
  C   C19       1.0  0.18413  0.20116  0.15468  1.0000
  C   C20       1.0  0.18978  0.19587  0.07349  1.0000
  C   C21       1.0  0.20070  0.18495  0.07349  1.0000
  C   C22       1.0  0.20599  0.17930  0.15468  1.0000
  H   H9        1.0  0.17616  0.20910  0.15232  1.0000
  H   H10       1.0  0.18593  0.19996  0.01430  1.0000
  H   H11       1.0  0.20479  0.18110  0.01430  1.0000
  H   H12       1.0  0.21393  0.17133  0.15232  1.0000
  C   C23       1.0  0.80954  0.01351  0.32080  1.0000
  C   C24       1.0  0.80404  0.00297  0.23742  1.0000
  C   C25       1.0  0.79290  0.98071  0.23740  1.0000
  C   C26       1.0  0.78786  0.97016  0.32077  1.0000
  C   C27       1.0  0.78735  0.96998  0.15466  1.0000
  C   C28       1.0  0.79264  0.98092  0.07347  1.0000
  C   C29       1.0  0.80356  0.00276  0.07349  1.0000
  C   C30       1.0  0.80922  0.01370  0.15469  1.0000
  H   H13       1.0  0.77941  0.95407  0.15228  1.0000
  H   H14       1.0  0.78855  0.97298  0.01428  1.0000
  H   H15       1.0  0.80741  0.01071  0.01430  1.0000
  H   H16       1.0  0.81718  0.02961  0.15233  1.0000
  C   C31       1.0  0.97499  0.78303  0.32077  1.0000
  C   C32       1.0  0.98554  0.78807  0.23740  1.0000
  C   C33       1.0  0.98575  0.78781  0.07346  1.0000
  C   C34       1.0  0.97481  0.78252  0.15466  1.0000
  H   H17       1.0  0.97781  0.78371  0.01428  1.0000
  H   H18       1.0  0.95890  0.77457  0.15229  1.0000
  C   C35       1.0  0.78786  0.80471  0.32078  1.0000
  C   C36       1.0  0.79290  0.79920  0.23741  1.0000
  C   C37       1.0  0.80403  0.78807  0.23741  1.0000
  C   C38       1.0  0.80954  0.78303  0.32078  1.0000
  C   C39       1.0  0.80921  0.78251  0.15468  1.0000
  C   C40       1.0  0.80356  0.78780  0.07348  1.0000
  C   C41       1.0  0.79264  0.79872  0.07347  1.0000
  C   C42       1.0  0.78735  0.80437  0.15467  1.0000
  H   H19       1.0  0.81718  0.77457  0.15232  1.0000
  H   H20       1.0  0.80741  0.78371  0.01430  1.0000
  H   H21       1.0  0.78855  0.80257  0.01428  1.0000
  H   H22       1.0  0.77941  0.81234  0.15230  1.0000
  C   C43       1.0  0.18380  0.97016  0.32079  1.0000
  C   C44       1.0  0.18931  0.98071  0.23742  1.0000
  C   C45       1.0  0.20044  0.00297  0.23742  1.0000
  C   C46       1.0  0.20548  0.01352  0.32079  1.0000
  C   C47       1.0  0.20599  0.01370  0.15468  1.0000
  C   C48       1.0  0.20071  0.00276  0.07349  1.0000
  C   C49       1.0  0.18979  0.98092  0.07349  1.0000
  C   C50       1.0  0.18413  0.96998  0.15469  1.0000
  H   H23       1.0  0.21394  0.02961  0.15231  1.0000
  H   H24       1.0  0.20480  0.01070  0.01430  1.0000
  H   H25       1.0  0.18594  0.97298  0.01430  1.0000
  H   H26       1.0  0.17616  0.95407  0.15232  1.0000
  C   C51       1.0  0.98554  0.18448  0.23740  1.0000
  C   C52       1.0  0.97499  0.17897  0.32076  1.0000
  C   C53       1.0  0.97481  0.17930  0.15465  1.0000
  C   C54       1.0  0.98576  0.18495  0.07346  1.0000
  H   H27       1.0  0.95890  0.17133  0.15228  1.0000
  H   H28       1.0  0.97782  0.18110  0.01428  1.0000
  C   C55       1.0  0.21210  0.58070  0.32337  1.0000
  C   C56       1.0  0.21045  0.58910  0.24046  1.0000
  C   C57       1.0  0.21043  0.60838  0.24042  1.0000
  C   C58       1.0  0.21203  0.61838  0.32339  1.0000
  C   C59       1.0  0.20999  0.61744  0.15766  1.0000
  C   C60       1.0  0.20937  0.60766  0.07650  1.0000
  C   C61       1.0  0.20941  0.58877  0.07650  1.0000
  C   C62       1.0  0.21005  0.57962  0.15767  1.0000
  H   H29       1.0  0.21004  0.63124  0.15531  1.0000
  H   H30       1.0  0.20903  0.61437  0.01733  1.0000
  H   H31       1.0  0.20909  0.58173  0.01733  1.0000
  H   H32       1.0  0.21015  0.56589  0.15531  1.0000
  C   C63       1.0  0.40782  0.61836  0.32342  1.0000
  C   C64       1.0  0.39943  0.60836  0.24042  1.0000
  C   C65       1.0  0.38014  0.58908  0.24042  1.0000
  C   C66       1.0  0.37014  0.58069  0.32341  1.0000
  C   C67       1.0  0.37106  0.57959  0.15765  1.0000
  C   C68       1.0  0.38084  0.58875  0.07649  1.0000
  C   C69       1.0  0.39975  0.60766  0.07649  1.0000
  C   C70       1.0  0.40891  0.61744  0.15765  1.0000
  H   H33       1.0  0.35725  0.56585  0.15530  1.0000
  H   H34       1.0  0.37412  0.58171  0.01731  1.0000
  H   H35       1.0  0.40679  0.61438  0.01732  1.0000
  H   H36       1.0  0.42266  0.63126  0.15531  1.0000
  C   C71       1.0  0.37008  0.77639  0.32357  1.0000
  C   C72       1.0  0.38013  0.77801  0.24064  1.0000
  C   C73       1.0  0.39942  0.77801  0.24067  1.0000
  C   C74       1.0  0.40779  0.77637  0.32369  1.0000
  C   C75       1.0  0.40891  0.77842  0.15789  1.0000
  C   C76       1.0  0.39976  0.77906  0.07671  1.0000
  C   C77       1.0  0.38086  0.77907  0.07668  1.0000
  C   C78       1.0  0.37107  0.77843  0.15783  1.0000
  H   H37       1.0  0.42265  0.77835  0.15554  1.0000
  H   H38       1.0  0.40681  0.77939  0.01755  1.0000
  H   H39       1.0  0.37415  0.77940  0.01750  1.0000
  H   H40       1.0  0.35726  0.77837  0.15543  1.0000
  C   C79       1.0  0.78124  0.40295  0.32365  1.0000
  C   C80       1.0  0.78288  0.39460  0.24058  1.0000
  C   C81       1.0  0.78288  0.37532  0.24051  1.0000
  C   C82       1.0  0.78127  0.36526  0.32338  1.0000
  C   C83       1.0  0.78330  0.36626  0.15770  1.0000
  C   C84       1.0  0.78392  0.37605  0.07656  1.0000
  C   C85       1.0  0.78392  0.39496  0.07663  1.0000
  C   C86       1.0  0.78329  0.40410  0.15783  1.0000
  H   H41       1.0  0.78323  0.35245  0.15528  1.0000
  H   H42       1.0  0.78425  0.36934  0.01737  1.0000
  H   H43       1.0  0.78425  0.40201  0.01749  1.0000
  H   H44       1.0  0.78322  0.41784  0.15552  1.0000
  C   C87       1.0  0.58550  0.36525  0.32338  1.0000
  C   C88       1.0  0.59391  0.37530  0.24048  1.0000
  C   C89       1.0  0.61320  0.39459  0.24046  1.0000
  C   C90       1.0  0.62325  0.40301  0.32335  1.0000
  C   C91       1.0  0.62226  0.40409  0.15768  1.0000
  C   C92       1.0  0.61247  0.39493  0.07652  1.0000
  C   C93       1.0  0.59357  0.37602  0.07653  1.0000
  C   C94       1.0  0.58442  0.36623  0.15770  1.0000
  H   H45       1.0  0.63607  0.41783  0.15531  1.0000
  H   H46       1.0  0.61918  0.40198  0.01735  1.0000
  H   H47       1.0  0.58652  0.36931  0.01737  1.0000
  H   H48       1.0  0.57068  0.35242  0.15535  1.0000
  C   C95       1.0  0.62320  0.20722  0.32343  1.0000
  C   C96       1.0  0.61320  0.20561  0.24043  1.0000
  C   C97       1.0  0.59392  0.20561  0.24042  1.0000
  C   C98       1.0  0.58552  0.20722  0.32341  1.0000
  C   C99       1.0  0.58443  0.20520  0.15765  1.0000
  C   C100      1.0  0.59359  0.20458  0.07649  1.0000
  C   C101      1.0  0.61250  0.20459  0.07650  1.0000
  C   C102      1.0  0.62228  0.20521  0.15766  1.0000
  H   H49       1.0  0.57069  0.20527  0.15530  1.0000
  H   H50       1.0  0.58655  0.20426  0.01731  1.0000
  H   H51       1.0  0.61922  0.20426  0.01733  1.0000
  H   H52       1.0  0.63610  0.20528  0.15532  1.0000
  C   C103      1.0  0.13927  0.24476  0.33786  1.0000
  N   N15       1.0  0.14934  0.26593  0.33723  1.0000
  C   C104      1.0  0.13926  0.27702  0.33690  1.0000
  N   N16       1.0  0.11809  0.26593  0.33722  1.0000
  C   C105      1.0  0.10699  0.24476  0.33786  1.0000
  N   N17       1.0  0.11808  0.23467  0.33801  1.0000
  C   C106      1.0  0.15038  0.29927  0.33675  1.0000
  C   C107      1.0  0.17247  0.31073  0.33736  1.0000
  C   C108      1.0  0.18346  0.33264  0.33980  1.0000
  C   C109      1.0  0.17263  0.34376  0.34131  1.0000
  C   C110      1.0  0.15069  0.33264  0.33983  1.0000
  C   C111      1.0  0.13977  0.31073  0.33737  1.0000
  C   C112      1.0  0.15044  0.23368  0.33701  1.0000
  C   C113      1.0  0.17253  0.24435  0.33530  1.0000
  C   C114      1.0  0.18356  0.23349  0.33177  1.0000
  C   C115      1.0  0.17281  0.21154  0.33026  1.0000
  C   C116      1.0  0.15086  0.20067  0.33279  1.0000
  C   C117      1.0  0.13989  0.21160  0.33625  1.0000
  C   C118      1.0  0.08474  0.23368  0.33700  1.0000
  C   C119      1.0  0.07322  0.21160  0.33626  1.0000
  C   C120      1.0  0.07332  0.24435  0.33530  1.0000
  H   H53       1.0  0.19949  0.24173  0.32883  1.0000
  H   H54       1.0  0.18094  0.26027  0.33526  1.0000
  H   H55       1.0  0.14270  0.18474  0.33058  1.0000
  H   H56       1.0  0.12397  0.20311  0.33696  1.0000
  H   H57       1.0  0.08064  0.20311  0.33699  1.0000
  H   H58       1.0  0.08083  0.26027  0.33525  1.0000
  H   H59       1.0  0.12385  0.30327  0.33741  1.0000
  H   H60       1.0  0.14249  0.34038  0.34207  1.0000
  H   H61       1.0  0.19939  0.34037  0.34201  1.0000
  H   H62       1.0  0.18092  0.30326  0.33736  1.0000
  C   C121      1.0  0.74376  0.88152  0.33790  1.0000
  N   N18       1.0  0.72258  0.87042  0.33726  1.0000
  C   C122      1.0  0.71149  0.84924  0.33694  1.0000
  N   N19       1.0  0.72258  0.83917  0.33726  1.0000
  C   C123      1.0  0.74376  0.84924  0.33790  1.0000
  N   N20       1.0  0.75385  0.87043  0.33804  1.0000
  C   C124      1.0  0.68925  0.83812  0.33679  1.0000
  C   C125      1.0  0.67778  0.84874  0.33740  1.0000
  C   C126      1.0  0.65588  0.83782  0.33985  1.0000
  C   C127      1.0  0.64475  0.81587  0.34129  1.0000
  C   C128      1.0  0.65588  0.80505  0.33978  1.0000
  C   C129      1.0  0.67778  0.81604  0.33737  1.0000
  C   C130      1.0  0.75483  0.90377  0.33702  1.0000
  C   C131      1.0  0.74416  0.91518  0.33531  1.0000
  C   C132      1.0  0.75502  0.93708  0.33176  1.0000
  C   C133      1.0  0.77697  0.94827  0.33022  1.0000
  C   C134      1.0  0.78784  0.93719  0.33275  1.0000
  C   C135      1.0  0.77691  0.91529  0.33626  1.0000
  C   C136      1.0  0.75483  0.83806  0.33703  1.0000
  C   C137      1.0  0.77691  0.84862  0.33626  1.0000
  C   C138      1.0  0.78784  0.83765  0.33277  1.0000
  C   C139      1.0  0.77697  0.81570  0.33024  1.0000
  C   C140      1.0  0.75502  0.80494  0.33181  1.0000
  C   C141      1.0  0.74416  0.81598  0.33534  1.0000
  H   H63       1.0  0.74678  0.94477  0.32889  1.0000
  H   H64       1.0  0.72824  0.90768  0.33535  1.0000
  H   H65       1.0  0.80377  0.94497  0.33053  1.0000
  H   H66       1.0  0.78540  0.90787  0.33693  1.0000
  H   H67       1.0  0.78540  0.86454  0.33697  1.0000
  H   H68       1.0  0.80377  0.84581  0.33056  1.0000
  H   H69       1.0  0.72824  0.80756  0.33532  1.0000
  H   H70       1.0  0.74678  0.78902  0.32885  1.0000
  H   H71       1.0  0.68525  0.80759  0.33739  1.0000
  H   H72       1.0  0.64814  0.78912  0.34202  1.0000
  H   H73       1.0  0.64814  0.84601  0.34210  1.0000
  H   H74       1.0  0.68525  0.86466  0.33747  1.0000
  C   C142      1.0  0.10699  0.84925  0.33788  1.0000
  N   N21       1.0  0.11809  0.83917  0.33725  1.0000
  C   C143      1.0  0.13926  0.84925  0.33692  1.0000
  N   N22       1.0  0.14934  0.87042  0.33724  1.0000
  C   C144      1.0  0.13926  0.88152  0.33788  1.0000
  N   N23       1.0  0.11808  0.87043  0.33802  1.0000
  C   C145      1.0  0.15038  0.83813  0.33677  1.0000
  C   C146      1.0  0.13975  0.81605  0.33739  1.0000
  C   C147      1.0  0.15067  0.80506  0.33983  1.0000
  C   C148      1.0  0.17262  0.81588  0.34135  1.0000
  C   C149      1.0  0.18344  0.83783  0.33986  1.0000
  C   C150      1.0  0.17246  0.84875  0.33740  1.0000
  C   C151      1.0  0.08474  0.83807  0.33702  1.0000
  C   C152      1.0  0.07332  0.81598  0.33532  1.0000
  C   C153      1.0  0.07321  0.84862  0.33626  1.0000
  C   C154      1.0  0.15044  0.90377  0.33700  1.0000
  C   C155      1.0  0.13988  0.91530  0.33627  1.0000
  C   C156      1.0  0.15086  0.93720  0.33282  1.0000
  C   C157      1.0  0.17280  0.94828  0.33027  1.0000
  C   C158      1.0  0.18356  0.93709  0.33176  1.0000
  C   C159      1.0  0.17252  0.91519  0.33530  1.0000
  H   H75       1.0  0.08083  0.80757  0.33529  1.0000
  H   H76       1.0  0.08064  0.86454  0.33697  1.0000
  H   H77       1.0  0.12397  0.90787  0.33699  1.0000
  H   H78       1.0  0.14270  0.94497  0.33061  1.0000
  H   H79       1.0  0.18094  0.90768  0.33526  1.0000
  H   H80       1.0  0.19949  0.94477  0.32882  1.0000
  H   H81       1.0  0.18091  0.86466  0.33744  1.0000
  H   H82       1.0  0.19938  0.84602  0.34210  1.0000
  H   H83       1.0  0.14248  0.78912  0.34205  1.0000
  H   H84       1.0  0.12384  0.80759  0.33739  1.0000
  C   C160      1.0  0.85408  0.73892  0.33790  1.0000
  N   N24       1.0  0.84400  0.71775  0.33725  1.0000
  C   C161      1.0  0.85408  0.70666  0.33693  1.0000
  N   N25       1.0  0.87525  0.71775  0.33725  1.0000
  C   C162      1.0  0.88635  0.73892  0.33789  1.0000
  N   N26       1.0  0.87526  0.74902  0.33804  1.0000
  C   C163      1.0  0.84296  0.68442  0.33677  1.0000
  C   C164      1.0  0.82088  0.67295  0.33739  1.0000
  C   C165      1.0  0.80989  0.65105  0.33984  1.0000
  C   C166      1.0  0.82072  0.63992  0.34129  1.0000
  C   C167      1.0  0.84266  0.65105  0.33978  1.0000
  C   C168      1.0  0.85358  0.67296  0.33736  1.0000
  C   C169      1.0  0.84290  0.75000  0.33702  1.0000
  C   C170      1.0  0.82081  0.73933  0.33531  1.0000
  C   C171      1.0  0.80977  0.75019  0.33178  1.0000
  C   C172      1.0  0.82053  0.77214  0.33026  1.0000
  C   C173      1.0  0.84248  0.78300  0.33277  1.0000
  C   C174      1.0  0.85345  0.77208  0.33627  1.0000
  C   C175      1.0  0.90860  0.75000  0.33703  1.0000
  C   C176      1.0  0.92013  0.77208  0.33626  1.0000
  C   C177      1.0  0.94203  0.78301  0.33275  1.0000
  C   C178      1.0  0.95310  0.77214  0.33024  1.0000
  C   C179      1.0  0.94192  0.75019  0.33183  1.0000
  C   C180      1.0  0.92002  0.73933  0.33533  1.0000
  H   H85       1.0  0.79385  0.74195  0.32890  1.0000
  H   H86       1.0  0.81240  0.72341  0.33535  1.0000
  H   H87       1.0  0.85064  0.79894  0.33055  1.0000
  H   H88       1.0  0.86937  0.78057  0.33694  1.0000
  H   H89       1.0  0.91270  0.78057  0.33693  1.0000
  H   H90       1.0  0.94980  0.79894  0.33052  1.0000
  H   H91       1.0  0.91251  0.72341  0.33535  1.0000
  H   H92       1.0  0.94960  0.74195  0.32888  1.0000
  H   H93       1.0  0.86950  0.68042  0.33739  1.0000
  H   H94       1.0  0.85086  0.64331  0.34202  1.0000
  H   H95       1.0  0.79396  0.64331  0.34209  1.0000
  H   H96       1.0  0.81243  0.68042  0.33746  1.0000
  C   C181      1.0  0.24959  0.10216  0.33786  1.0000
  N   N27       1.0  0.27076  0.11326  0.33723  1.0000
  C   C182      1.0  0.28185  0.13443  0.33690  1.0000
  N   N28       1.0  0.27076  0.14451  0.33722  1.0000
  C   C183      1.0  0.24959  0.13444  0.33786  1.0000
  N   N29       1.0  0.23950  0.11325  0.33800  1.0000
  C   C184      1.0  0.30409  0.14555  0.33675  1.0000
  C   C185      1.0  0.31556  0.13493  0.33736  1.0000
  C   C186      1.0  0.33746  0.14584  0.33980  1.0000
  C   C187      1.0  0.34859  0.16779  0.34132  1.0000
  C   C188      1.0  0.33747  0.17861  0.33984  1.0000
  C   C189      1.0  0.31556  0.16763  0.33738  1.0000
  C   C190      1.0  0.23851  0.07991  0.33701  1.0000
  C   C191      1.0  0.24918  0.06849  0.33530  1.0000
  C   C192      1.0  0.23832  0.04659  0.33177  1.0000
  C   C193      1.0  0.21637  0.03540  0.33026  1.0000
  C   C194      1.0  0.20550  0.04648  0.33279  1.0000
  C   C195      1.0  0.21643  0.06839  0.33625  1.0000
  C   C196      1.0  0.23851  0.14561  0.33699  1.0000
  C   C197      1.0  0.21643  0.13506  0.33625  1.0000
  C   C198      1.0  0.20550  0.14603  0.33281  1.0000
  C   C199      1.0  0.21637  0.16798  0.33026  1.0000
  C   C200      1.0  0.23832  0.17873  0.33175  1.0000
  C   C201      1.0  0.24918  0.16770  0.33528  1.0000
  H   H97       1.0  0.24656  0.03891  0.32883  1.0000
  H   H98       1.0  0.26510  0.07600  0.33526  1.0000
  H   H99       1.0  0.18957  0.03871  0.33058  1.0000
  H   H100      1.0  0.20794  0.07581  0.33697  1.0000
  H   H101      1.0  0.20794  0.11914  0.33697  1.0000
  H   H102      1.0  0.18957  0.13787  0.33059  1.0000
  H   H103      1.0  0.26510  0.17611  0.33526  1.0000
  H   H104      1.0  0.24656  0.19466  0.32882  1.0000
  H   H105      1.0  0.30810  0.17609  0.33743  1.0000
  H   H106      1.0  0.34521  0.19455  0.34209  1.0000
  H   H107      1.0  0.34520  0.13765  0.34201  1.0000
  H   H108      1.0  0.30809  0.11901  0.33735  1.0000
  C   C202      1.0  0.88635  0.13443  0.33790  1.0000
  N   N30       1.0  0.87525  0.14450  0.33725  1.0000
  C   C203      1.0  0.85408  0.13442  0.33693  1.0000
  N   N31       1.0  0.84400  0.11325  0.33725  1.0000
  C   C204      1.0  0.85407  0.10216  0.33789  1.0000
  N   N32       1.0  0.87526  0.11325  0.33803  1.0000
  C   C205      1.0  0.84296  0.14554  0.33677  1.0000
  C   C206      1.0  0.85357  0.16763  0.33739  1.0000
  C   C207      1.0  0.84265  0.17861  0.33984  1.0000
  C   C208      1.0  0.82070  0.16779  0.34128  1.0000
  C   C209      1.0  0.80988  0.14584  0.33976  1.0000
  C   C210      1.0  0.82087  0.13492  0.33735  1.0000
  C   C211      1.0  0.90860  0.14561  0.33701  1.0000
  C   C212      1.0  0.92001  0.16769  0.33530  1.0000
  C   C213      1.0  0.94191  0.17873  0.33175  1.0000
  C   C214      1.0  0.95310  0.16797  0.33022  1.0000
  C   C215      1.0  0.94203  0.14603  0.33275  1.0000
  C   C216      1.0  0.92012  0.13505  0.33626  1.0000
  C   C217      1.0  0.84290  0.07991  0.33703  1.0000
  C   C218      1.0  0.85345  0.06838  0.33625  1.0000
  C   C219      1.0  0.84248  0.04648  0.33277  1.0000
  C   C220      1.0  0.82053  0.03540  0.33028  1.0000
  C   C221      1.0  0.80978  0.04659  0.33183  1.0000
  C   C222      1.0  0.82081  0.06849  0.33532  1.0000
  H   H109      1.0  0.94960  0.19466  0.32888  1.0000
  H   H110      1.0  0.91251  0.17611  0.33534  1.0000
  H   H111      1.0  0.94980  0.13787  0.33054  1.0000
  H   H112      1.0  0.91270  0.11914  0.33693  1.0000
  H   H113      1.0  0.86937  0.07581  0.33695  1.0000
  H   H114      1.0  0.85064  0.03871  0.33056  1.0000
  H   H115      1.0  0.81240  0.07599  0.33534  1.0000
  H   H116      1.0  0.79385  0.03890  0.32888  1.0000
  H   H117      1.0  0.81242  0.11900  0.33738  1.0000
  H   H118      1.0  0.79395  0.13764  0.34201  1.0000
  H   H119      1.0  0.85084  0.19455  0.34209  1.0000
  H   H120      1.0  0.86949  0.17608  0.33746  1.0000
  C   C223      1.0  0.24946  0.52974  0.33534  1.0000
  N   N33       1.0  0.23930  0.50858  0.33389  1.0000
  C   C224      1.0  0.24954  0.49756  0.33316  1.0000
  N   N34       1.0  0.27081  0.50858  0.33386  1.0000
  C   C225      1.0  0.28181  0.52974  0.33531  1.0000
  N   N35       1.0  0.27052  0.53951  0.33589  1.0000
  C   C226      1.0  0.23842  0.47531  0.33298  1.0000
  C   C227      1.0  0.21633  0.46385  0.33385  1.0000
  C   C228      1.0  0.20535  0.44194  0.33691  1.0000
  C   C229      1.0  0.21617  0.43083  0.33876  1.0000
  C   C230      1.0  0.23811  0.44194  0.33692  1.0000
  C   C231      1.0  0.24903  0.46384  0.33384  1.0000
  C   C232      1.0  0.23941  0.54189  0.33535  1.0000
  C   C233      1.0  0.21748  0.53283  0.32898  1.0000
  C   C234      1.0  0.20803  0.54529  0.32623  1.0000
  C   C235      1.0  0.22033  0.56719  0.33049  1.0000
  C   C236      1.0  0.24213  0.57634  0.33768  1.0000
  C   C237      1.0  0.25144  0.56392  0.34018  1.0000
  C   C238      1.0  0.30401  0.54189  0.33528  1.0000
  C   C239      1.0  0.31401  0.56392  0.33995  1.0000
  C   C240      1.0  0.33574  0.57634  0.33747  1.0000
  C   C241      1.0  0.34839  0.56718  0.33050  1.0000
  C   C242      1.0  0.33879  0.54528  0.32638  1.0000
  C   C243      1.0  0.31687  0.53282  0.32908  1.0000
  H   H121      1.0  0.19221  0.53833  0.32002  1.0000
  H   H122      1.0  0.20815  0.51702  0.32477  1.0000
  H   H123      1.0  0.25151  0.59220  0.33973  1.0000
  H   H124      1.0  0.26732  0.57144  0.34470  1.0000
  H   H125      1.0  0.30564  0.57144  0.34432  1.0000
  H   H126      1.0  0.34222  0.59220  0.33941  1.0000
  H   H127      1.0  0.31039  0.51701  0.32502  1.0000
  H   H128      1.0  0.34765  0.53832  0.32032  1.0000
  H   H129      1.0  0.26495  0.47130  0.33382  1.0000
  H   H130      1.0  0.24631  0.43421  0.33953  1.0000
  H   H131      1.0  0.18942  0.43421  0.33950  1.0000
  H   H132      1.0  0.20787  0.47130  0.33379  1.0000
  C   C244      1.0  0.45878  0.70669  0.33521  1.0000
  N   N36       1.0  0.47994  0.71769  0.33378  1.0000
  C   C245      1.0  0.49096  0.73896  0.33305  1.0000
  N   N37       1.0  0.47994  0.74920  0.33374  1.0000
  C   C246      1.0  0.45878  0.73904  0.33516  1.0000
  N   N38       1.0  0.44901  0.71798  0.33574  1.0000
  C   C247      1.0  0.51321  0.75008  0.33291  1.0000
  C   C248      1.0  0.52468  0.73946  0.33379  1.0000
  C   C249      1.0  0.54658  0.75038  0.33689  1.0000
  C   C250      1.0  0.55769  0.77232  0.33870  1.0000
  C   C251      1.0  0.54657  0.78315  0.33681  1.0000
  C   C252      1.0  0.52467  0.77216  0.33375  1.0000
  C   C253      1.0  0.44663  0.68449  0.33523  1.0000
  C   C254      1.0  0.45569  0.67163  0.32900  1.0000
  C   C255      1.0  0.44322  0.64971  0.32633  1.0000
  C   C256      1.0  0.42132  0.64011  0.33052  1.0000
  C   C257      1.0  0.41218  0.65276  0.33747  1.0000
  C   C258      1.0  0.42459  0.67449  0.33995  1.0000
  C   C259      1.0  0.44663  0.74909  0.33516  1.0000
  C   C260      1.0  0.42460  0.73705  0.33996  1.0000
  C   C261      1.0  0.41218  0.74636  0.33754  1.0000
  C   C262      1.0  0.42132  0.76816  0.33048  1.0000
  C   C263      1.0  0.44322  0.78046  0.32630  1.0000
  C   C264      1.0  0.45569  0.77101  0.32892  1.0000
  H   H133      1.0  0.45018  0.64084  0.32028  1.0000
  H   H134      1.0  0.47150  0.67810  0.32494  1.0000
  H   H135      1.0  0.39631  0.64628  0.33944  1.0000
  H   H136      1.0  0.41708  0.68286  0.34430  1.0000
  H   H137      1.0  0.41709  0.72117  0.34441  1.0000
  H   H138      1.0  0.39631  0.73697  0.33964  1.0000
  H   H139      1.0  0.47150  0.78035  0.32478  1.0000
  H   H140      1.0  0.45017  0.79629  0.32021  1.0000
  H   H141      1.0  0.51722  0.78062  0.33370  1.0000
  H   H142      1.0  0.55431  0.79908  0.33943  1.0000
  H   H143      1.0  0.55431  0.74218  0.33952  1.0000
  H   H144      1.0  0.51722  0.72354  0.33380  1.0000
  C   C265      1.0  0.28177  0.73906  0.33520  1.0000
  N   N39       1.0  0.27077  0.74922  0.33378  1.0000
  C   C266      1.0  0.24950  0.73898  0.33308  1.0000
  N   N40       1.0  0.23926  0.71771  0.33379  1.0000
  C   C267      1.0  0.24942  0.70671  0.33522  1.0000
  N   N41       1.0  0.27048  0.71800  0.33576  1.0000
  C   C268      1.0  0.23838  0.75010  0.33292  1.0000
  C   C269      1.0  0.24900  0.77218  0.33379  1.0000
  C   C270      1.0  0.23809  0.78317  0.33686  1.0000
  C   C271      1.0  0.21615  0.77235  0.33870  1.0000
  C   C272      1.0  0.20532  0.75040  0.33688  1.0000
  C   C273      1.0  0.21630  0.73948  0.33380  1.0000
  C   C274      1.0  0.30397  0.74911  0.33520  1.0000
  C   C275      1.0  0.31683  0.77103  0.32894  1.0000
  C   C276      1.0  0.33875  0.78048  0.32624  1.0000
  C   C277      1.0  0.34834  0.76818  0.33042  1.0000
  C   C278      1.0  0.33569  0.74638  0.33752  1.0000
  C   C279      1.0  0.31396  0.73707  0.33997  1.0000
  C   C280      1.0  0.23937  0.68451  0.33520  1.0000
  C   C281      1.0  0.25140  0.67450  0.33986  1.0000
  C   C282      1.0  0.24208  0.65278  0.33740  1.0000
  C   C283      1.0  0.22028  0.64013  0.33046  1.0000
  C   C284      1.0  0.20799  0.64973  0.32636  1.0000
  C   C285      1.0  0.21744  0.67165  0.32906  1.0000
  H   H145      1.0  0.34762  0.79631  0.32016  1.0000
  H   H146      1.0  0.31036  0.78037  0.32480  1.0000
  H   H147      1.0  0.34217  0.73699  0.33959  1.0000
  H   H148      1.0  0.30559  0.72119  0.34444  1.0000
  H   H149      1.0  0.26728  0.68287  0.34421  1.0000
  H   H150      1.0  0.25147  0.64629  0.33932  1.0000
  H   H151      1.0  0.20811  0.67813  0.32498  1.0000
  H   H152      1.0  0.19215  0.64086  0.32032  1.0000
  H   H153      1.0  0.20784  0.72357  0.33378  1.0000
  H   H154      1.0  0.18939  0.74220  0.33950  1.0000
  H   H155      1.0  0.24629  0.79910  0.33945  1.0000
  H   H156      1.0  0.26492  0.78064  0.33372  1.0000
  C   C286      1.0  0.74391  0.45395  0.33522  1.0000
  N   N42       1.0  0.75408  0.47511  0.33378  1.0000
  C   C287      1.0  0.74384  0.48614  0.33307  1.0000
  N   N43       1.0  0.72257  0.47512  0.33379  1.0000
  C   C288      1.0  0.71157  0.45396  0.33523  1.0000
  N   N44       1.0  0.72285  0.44418  0.33579  1.0000
  C   C289      1.0  0.75496  0.50838  0.33291  1.0000
  C   C290      1.0  0.77704  0.51985  0.33378  1.0000
  C   C291      1.0  0.78803  0.54174  0.33688  1.0000
  C   C292      1.0  0.77720  0.55286  0.33872  1.0000
  C   C293      1.0  0.75526  0.54175  0.33683  1.0000
  C   C294      1.0  0.74434  0.51985  0.33378  1.0000
  C   C295      1.0  0.75396  0.44179  0.33523  1.0000
  C   C296      1.0  0.77588  0.45085  0.32896  1.0000
  C   C297      1.0  0.78533  0.43838  0.32633  1.0000
  C   C298      1.0  0.77302  0.41648  0.33058  1.0000
  C   C299      1.0  0.75122  0.40734  0.33758  1.0000
  C   C300      1.0  0.74192  0.41976  0.34001  1.0000
  C   C301      1.0  0.68937  0.44181  0.33524  1.0000
  C   C302      1.0  0.67936  0.41978  0.34004  1.0000
  C   C303      1.0  0.65764  0.40736  0.33755  1.0000
  C   C304      1.0  0.64499  0.41652  0.33044  1.0000
  C   C305      1.0  0.65459  0.43841  0.32623  1.0000
  C   C306      1.0  0.67651  0.45087  0.32894  1.0000
  H   H157      1.0  0.80116  0.44533  0.32028  1.0000
  H   H158      1.0  0.78522  0.46666  0.32486  1.0000
  H   H159      1.0  0.74183  0.39147  0.33963  1.0000
  H   H160      1.0  0.72603  0.41225  0.34441  1.0000
  H   H161      1.0  0.68773  0.41226  0.34452  1.0000
  H   H162      1.0  0.65115  0.39150  0.33958  1.0000
  H   H163      1.0  0.68299  0.46669  0.32476  1.0000
  H   H164      1.0  0.64572  0.44537  0.32004  1.0000
  H   H165      1.0  0.72843  0.51239  0.33374  1.0000
  H   H166      1.0  0.74706  0.54948  0.33946  1.0000
  H   H167      1.0  0.80396  0.54948  0.33950  1.0000
  H   H168      1.0  0.78550  0.51239  0.33377  1.0000
  C   C307      1.0  0.53456  0.27694  0.33531  1.0000
  N   N45       1.0  0.51340  0.26594  0.33386  1.0000
  C   C308      1.0  0.50238  0.24467  0.33313  1.0000
  N   N46       1.0  0.51340  0.23443  0.33384  1.0000
  C   C309      1.0  0.53457  0.24459  0.33529  1.0000
  N   N47       1.0  0.54434  0.26565  0.33586  1.0000
  C   C310      1.0  0.48014  0.23355  0.33296  1.0000
  C   C311      1.0  0.46867  0.24417  0.33383  1.0000
  C   C312      1.0  0.44677  0.23325  0.33689  1.0000
  C   C313      1.0  0.43565  0.21131  0.33876  1.0000
  C   C314      1.0  0.44677  0.20048  0.33691  1.0000
  C   C315      1.0  0.46867  0.21146  0.33384  1.0000
  C   C316      1.0  0.54671  0.29914  0.33532  1.0000
  C   C317      1.0  0.53764  0.31200  0.32897  1.0000
  C   C318      1.0  0.55010  0.33391  0.32623  1.0000
  C   C319      1.0  0.57200  0.34352  0.33051  1.0000
  C   C320      1.0  0.58115  0.33087  0.33765  1.0000
  C   C321      1.0  0.56874  0.30914  0.34014  1.0000
  C   C322      1.0  0.54672  0.23454  0.33526  1.0000
  C   C323      1.0  0.56875  0.24658  0.33993  1.0000
  C   C324      1.0  0.58117  0.23727  0.33747  1.0000
  C   C325      1.0  0.57202  0.21546  0.33050  1.0000
  C   C326      1.0  0.55012  0.20317  0.32637  1.0000
  C   C327      1.0  0.53765  0.21262  0.32907  1.0000
  H   H169      1.0  0.54314  0.34278  0.32002  1.0000
  H   H170      1.0  0.52183  0.30551  0.32475  1.0000
  H   H171      1.0  0.59702  0.33736  0.33970  1.0000
  H   H172      1.0  0.57625  0.30077  0.34464  1.0000
  H   H173      1.0  0.57627  0.26246  0.34431  1.0000
  H   H174      1.0  0.59703  0.24665  0.33940  1.0000
  H   H175      1.0  0.52184  0.20328  0.32501  1.0000
  H   H176      1.0  0.54316  0.18733  0.32031  1.0000
  H   H177      1.0  0.47612  0.20300  0.33382  1.0000
  H   H178      1.0  0.43903  0.18455  0.33953  1.0000
  H   H179      1.0  0.43904  0.24145  0.33948  1.0000
  H   H180      1.0  0.47613  0.26009  0.33376  1.0000
  C   C328      1.0  0.71153  0.24459  0.33530  1.0000
  N   N48       1.0  0.72252  0.23443  0.33386  1.0000
  C   C329      1.0  0.74379  0.24467  0.33315  1.0000
  N   N49       1.0  0.75404  0.26594  0.33384  1.0000
  C   C330      1.0  0.74388  0.27694  0.33527  1.0000
  N   N50       1.0  0.72282  0.26565  0.33585  1.0000
  C   C331      1.0  0.75491  0.23355  0.33297  1.0000
  C   C332      1.0  0.74430  0.21146  0.33384  1.0000
  C   C333      1.0  0.75521  0.20048  0.33691  1.0000
  C   C334      1.0  0.77716  0.21130  0.33872  1.0000
  C   C335      1.0  0.78798  0.23325  0.33685  1.0000
  C   C336      1.0  0.77700  0.24416  0.33382  1.0000
  C   C337      1.0  0.68933  0.23455  0.33529  1.0000
  C   C338      1.0  0.67647  0.21262  0.32906  1.0000
  C   C339      1.0  0.65455  0.20317  0.32637  1.0000
  C   C340      1.0  0.64495  0.21547  0.33053  1.0000
  C   C341      1.0  0.65760  0.23727  0.33748  1.0000
  C   C342      1.0  0.67933  0.24658  0.33999  1.0000
  C   C343      1.0  0.75394  0.29914  0.33524  1.0000
  C   C344      1.0  0.74191  0.30915  0.33996  1.0000
  C   C345      1.0  0.75123  0.33087  0.33745  1.0000
  C   C346      1.0  0.77303  0.34352  0.33043  1.0000
  C   C347      1.0  0.78533  0.33391  0.32630  1.0000
  C   C348      1.0  0.77587  0.31200  0.32899  1.0000
  H   H181      1.0  0.64568  0.18734  0.32033  1.0000
  H   H182      1.0  0.68295  0.20328  0.32502  1.0000
  H   H183      1.0  0.65112  0.24665  0.33944  1.0000
  H   H184      1.0  0.68770  0.26246  0.34434  1.0000
  H   H185      1.0  0.72603  0.30078  0.34439  1.0000
  H   H186      1.0  0.74185  0.33736  0.33945  1.0000
  H   H187      1.0  0.78519  0.30551  0.32491  1.0000
  H   H188      1.0  0.80115  0.34278  0.32018  1.0000
  H   H189      1.0  0.78546  0.26008  0.33378  1.0000
  H   H190      1.0  0.80391  0.24144  0.33947  1.0000
  H   H191      1.0  0.74701  0.18455  0.33954  1.0000
  H   H192      1.0  0.72838  0.20300  0.33385  1.0000
  C   C349      1.0  0.18358  0.36565  0.35008  1.0000
  C   C350      1.0  0.18891  0.37632  0.43317  1.0000
  C   C351      1.0  0.20004  0.39857  0.43250  1.0000
  C   C352      1.0  0.20524  0.40897  0.34879  1.0000
  C   C353      1.0  0.20547  0.40944  0.51491  1.0000
  C   C354      1.0  0.20007  0.39864  0.59645  1.0000
  C   C355      1.0  0.18915  0.37680  0.59710  1.0000
  C   C356      1.0  0.18361  0.36573  0.51623  1.0000
  H   H193      1.0  0.21343  0.42536  0.51681  1.0000
  H   H194      1.0  0.20409  0.40668  0.65539  1.0000
  H   H195      1.0  0.18522  0.36895  0.65653  1.0000
  H   H196      1.0  0.17566  0.34982  0.51907  1.0000
  C   C357      1.0  0.62287  0.80492  0.35007  1.0000
  C   C358      1.0  0.61219  0.79959  0.43314  1.0000
  C   C359      1.0  0.58994  0.78846  0.43246  1.0000
  C   C360      1.0  0.57954  0.78325  0.34874  1.0000
  C   C361      1.0  0.57907  0.78302  0.51487  1.0000
  C   C362      1.0  0.58987  0.78843  0.59641  1.0000
  C   C363      1.0  0.61171  0.79935  0.59708  1.0000
  C   C364      1.0  0.62279  0.80489  0.51621  1.0000
  H   H197      1.0  0.56315  0.77506  0.51676  1.0000
  H   H198      1.0  0.58183  0.78441  0.65535  1.0000
  H   H199      1.0  0.61955  0.80328  0.65651  1.0000
  H   H200      1.0  0.63869  0.81285  0.51907  1.0000
  C   C365      1.0  0.18356  0.80494  0.35010  1.0000
  C   C366      1.0  0.18890  0.79960  0.43317  1.0000
  C   C367      1.0  0.20003  0.78847  0.43248  1.0000
  C   C368      1.0  0.20522  0.78327  0.34875  1.0000
  C   C369      1.0  0.20547  0.78304  0.51489  1.0000
  C   C370      1.0  0.20007  0.78844  0.59643  1.0000
  C   C371      1.0  0.18915  0.79936  0.59710  1.0000
  C   C372      1.0  0.18361  0.80490  0.51625  1.0000
  H   H201      1.0  0.21342  0.77508  0.51676  1.0000
  H   H202      1.0  0.20409  0.78442  0.65537  1.0000
  H   H203      1.0  0.18523  0.80328  0.65654  1.0000
  H   H204      1.0  0.17566  0.81285  0.51911  1.0000
  C   C373      1.0  0.80978  0.61804  0.35007  1.0000
  C   C374      1.0  0.80444  0.60736  0.43315  1.0000
  C   C375      1.0  0.79332  0.58511  0.43247  1.0000
  C   C376      1.0  0.78813  0.57471  0.34875  1.0000
  C   C377      1.0  0.78788  0.57424  0.51489  1.0000
  C   C378      1.0  0.79328  0.58505  0.59642  1.0000
  C   C379      1.0  0.80419  0.60688  0.59708  1.0000
  C   C380      1.0  0.80973  0.61796  0.51622  1.0000
  H   H205      1.0  0.77993  0.55832  0.51677  1.0000
  H   H206      1.0  0.78926  0.57700  0.65537  1.0000
  H   H207      1.0  0.80811  0.61473  0.65651  1.0000
  H   H208      1.0  0.81768  0.63387  0.51906  1.0000
  C   C381      1.0  0.37048  0.17873  0.35009  1.0000
  C   C382      1.0  0.38115  0.18407  0.43317  1.0000
  C   C383      1.0  0.40340  0.19519  0.43250  1.0000
  C   C384      1.0  0.41380  0.20038  0.34878  1.0000
  C   C385      1.0  0.41427  0.20063  0.51491  1.0000
  C   C386      1.0  0.40347  0.19523  0.59645  1.0000
  C   C387      1.0  0.38163  0.18432  0.59710  1.0000
  C   C388      1.0  0.37055  0.17878  0.51624  1.0000
  H   H209      1.0  0.43019  0.20858  0.51680  1.0000
  H   H210      1.0  0.41151  0.19926  0.65539  1.0000
  H   H211      1.0  0.37378  0.18040  0.65653  1.0000
  H   H212      1.0  0.35465  0.17083  0.51909  1.0000
  C   C389      1.0  0.80976  0.17873  0.35006  1.0000
  C   C390      1.0  0.80442  0.18407  0.43314  1.0000
  C   C391      1.0  0.79329  0.19519  0.43246  1.0000
  C   C392      1.0  0.78809  0.20038  0.34874  1.0000
  C   C393      1.0  0.78786  0.20063  0.51488  1.0000
  C   C394      1.0  0.79327  0.19523  0.59642  1.0000
  C   C395      1.0  0.80419  0.18432  0.59707  1.0000
  C   C396      1.0  0.80973  0.17878  0.51620  1.0000
  H   H213      1.0  0.77990  0.20858  0.51677  1.0000
  H   H214      1.0  0.78925  0.19925  0.65536  1.0000
  H   H215      1.0  0.80812  0.18040  0.65650  1.0000
  H   H216      1.0  0.81768  0.17083  0.51905  1.0000
  N   N51       1.0  0.18932  0.19466  0.39670  1.0000
  N   N52       1.0  0.19949  0.18449  0.39670  1.0000
  N   N53       1.0  0.79385  0.98167  0.39668  1.0000
  N   N54       1.0  0.80401  0.00200  0.39670  1.0000
  N   N55       1.0  0.98650  0.78902  0.39668  1.0000
  N   N56       1.0  0.80401  0.78902  0.39669  1.0000
  N   N57       1.0  0.79385  0.79918  0.39668  1.0000
  N   N58       1.0  0.19949  0.00200  0.39670  1.0000
  N   N59       1.0  0.18932  0.98168  0.39670  1.0000
  N   N60       1.0  0.98650  0.18449  0.39668  1.0000
  N   N61       1.0  0.21385  0.60923  0.39861  1.0000
  N   N62       1.0  0.21388  0.59169  0.39852  1.0000
  N   N63       1.0  0.37930  0.59164  0.39866  1.0000
  N   N64       1.0  0.39686  0.60920  0.39867  1.0000
  N   N65       1.0  0.39686  0.77467  0.39887  1.0000
  N   N66       1.0  0.37931  0.77468  0.39877  1.0000
  N   N67       1.0  0.77950  0.37445  0.39861  1.0000
  N   N68       1.0  0.77949  0.39200  0.39881  1.0000
  N   N69       1.0  0.61406  0.39202  0.39848  1.0000
  N   N70       1.0  0.59650  0.37446  0.39849  1.0000
  N   N71       1.0  0.59647  0.20901  0.39866  1.0000
  N   N72       1.0  0.61404  0.20901  0.39867  1.0000
