data_image0
_chemical_formula_structural       C4HNO2C4HNO2C4HNO2C4HNO2C2HNO2C2HNO2C2HNO2C2HNO2C2HNO2C2HNO2C2HNO2C2HNO2C4HNO2C4HNO2C4HNO2C4HNO2C2HNO2C2HNO2C2HNO2C2HNO2C4HNO2C4HNO2C4HNO2C4HNO2C2HNO2C2HNO2C4HNO2C4HNO2C4HNO2C4HNO2C2HNO2C2HNO2C2HNO2C2HNO2C2HNO2C2HNO2C2HNO2C2HNO2C4HNO2C4HNO2C4HNO2C4HNO2CNCNCNCNCNCNCNCNCNCNCNCNCNCNCNCNCNCNCNCNCNCNCNCNCNCNCNCNCNCNCNCNCNCNCNCNCNCNCNCNCNCNCNCNCNCNCNCNCNCNCNCNCNCNCNCNCNCNCNCNCNCNCNCNCNCNCNCNCNCNCNCNCNCNCNCNCNCNCNCNCNCNCNCNC2HNO2C2HNO2C2HNO2C2HNO2C4HNO2C4HNO2C4HNO2C4HNO2C4HNO2C4HNO2C4HNO2C4HNO2C2HNO2C2HNO2C2HNO2C2HNO2C4HNO2C4HNO2C4HNO2C4HNO2C2HNO2C2HNO2C2HNO2C2HNO2C4HNO2C4HNO2C2HNO2C2HNO2C2HNO2C2HNO2C4HNO2C4HNO2C4HNO2C4HNO2C4HNO2C4HNO2C4HNO2C4HNO2C2HNO2C2HNO2C2HNO2C2HNO2
_chemical_formula_sum              "C336 H84 N168 O168"
_cell_length_a       51.3958
_cell_length_b       51.3958
_cell_length_c       14.7424
_cell_angle_alpha    90
_cell_angle_beta     90
_cell_angle_gamma    90

_space_group_name_H-M_alt    "P 1"
_space_group_IT_number       1

loop_
  _space_group_symop_operation_xyz
  'x, y, z'

loop_
  _atom_site_type_symbol
  _atom_site_label
  _atom_site_symmetry_multiplicity
  _atom_site_fract_x
  _atom_site_fract_y
  _atom_site_fract_z
  _atom_site_occupancy
  C   C1        1.0  0.16497  0.16543  0.35061  1.0000
  C   C2        1.0  0.15518  0.15570  0.26808  1.0000
  C   C3        1.0  0.13560  0.13637  0.26707  1.0000
  C   C4        1.0  0.12585  0.12684  0.35075  1.0000
  H   H1        1.0  0.16228  0.16266  0.20788  1.0000
  N   N1        1.0  0.12564  0.12649  0.18424  1.0000
  O   O1        1.0  0.14313  0.11580  0.13780  1.0000
  O   O2        1.0  0.11525  0.14411  0.13756  1.0000
  C   C5        1.0  0.85255  0.85209  0.35063  1.0000
  C   C6        1.0  0.86234  0.86182  0.26809  1.0000
  C   C7        1.0  0.88193  0.88114  0.26707  1.0000
  C   C8        1.0  0.89168  0.89068  0.35076  1.0000
  H   H2        1.0  0.85525  0.85485  0.20789  1.0000
  N   N2        1.0  0.89190  0.89101  0.18425  1.0000
  O   O3        1.0  0.87441  0.90171  0.13779  1.0000
  O   O4        1.0  0.90229  0.87339  0.13758  1.0000
  C   C9        1.0  0.85211  0.16499  0.35067  1.0000
  C   C10       1.0  0.86184  0.15521  0.26813  1.0000
  C   C11       1.0  0.88116  0.13561  0.26711  1.0000
  C   C12       1.0  0.89068  0.12584  0.35079  1.0000
  H   H3        1.0  0.85489  0.16231  0.20793  1.0000
  N   N3        1.0  0.89103  0.12565  0.18427  1.0000
  O   O5        1.0  0.90174  0.14314  0.13786  1.0000
  O   O6        1.0  0.87340  0.11527  0.13758  1.0000
  C   C13       1.0  0.16544  0.85258  0.35064  1.0000
  C   C14       1.0  0.15570  0.86235  0.26810  1.0000
  C   C15       1.0  0.13636  0.88192  0.26707  1.0000
  C   C16       1.0  0.12683  0.89169  0.35076  1.0000
  H   H4        1.0  0.16266  0.85525  0.20790  1.0000
  N   N4        1.0  0.12647  0.89188  0.18425  1.0000
  O   O7        1.0  0.11578  0.87438  0.13784  1.0000
  O   O8        1.0  0.14409  0.90227  0.13754  1.0000
  C   C17       1.0  0.10109  0.02305  0.26773  1.0000
  C   C18       1.0  0.10165  0.99554  0.26884  1.0000
  H   H5        1.0  0.10040  0.98562  0.20875  1.0000
  N   N5        1.0  0.09946  0.03695  0.18480  1.0000
  O   O9        1.0  0.11881  0.03252  0.13503  1.0000
  O   O10       1.0  0.07913  0.03131  0.14167  1.0000
  C   C19       1.0  0.91642  0.99446  0.26773  1.0000
  C   C20       1.0  0.91588  0.02197  0.26884  1.0000
  H   H6        1.0  0.91710  0.03190  0.20875  1.0000
  N   N6        1.0  0.91805  0.98056  0.18479  1.0000
  O   O11       1.0  0.89871  0.98499  0.13503  1.0000
  O   O12       1.0  0.93839  0.98620  0.14167  1.0000
  C   C21       1.0  0.99446  0.10112  0.26753  1.0000
  C   C22       1.0  0.02196  0.10167  0.26861  1.0000
  H   H7        1.0  0.03189  0.10045  0.20852  1.0000
  N   N7        1.0  0.98055  0.09951  0.18462  1.0000
  O   O13       1.0  0.98497  0.11886  0.13490  1.0000
  O   O14       1.0  0.98618  0.07919  0.14142  1.0000
  C   C23       1.0  0.02305  0.91637  0.26752  1.0000
  C   C24       1.0  0.99555  0.91581  0.26859  1.0000
  H   H8        1.0  0.98562  0.91706  0.20850  1.0000
  N   N8        1.0  0.03697  0.91798  0.18462  1.0000
  O   O15       1.0  0.03256  0.89863  0.13490  1.0000
  O   O16       1.0  0.03134  0.93830  0.14142  1.0000
  C   C25       1.0  0.18283  0.26820  0.26743  1.0000
  C   C26       1.0  0.17339  0.29413  0.26858  1.0000
  H   H9        1.0  0.17072  0.30367  0.20835  1.0000
  N   N9        1.0  0.18769  0.25512  0.18448  1.0000
  O   O17       1.0  0.16735  0.25303  0.13778  1.0000
  O   O18       1.0  0.20469  0.26663  0.13818  1.0000
  C   C27       1.0  0.83468  0.74934  0.26742  1.0000
  C   C28       1.0  0.84408  0.72340  0.26856  1.0000
  H   H10       1.0  0.84677  0.71387  0.20831  1.0000
  N   N10       1.0  0.82984  0.76244  0.18448  1.0000
  O   O19       1.0  0.85020  0.76451  0.13783  1.0000
  O   O20       1.0  0.81284  0.75096  0.13812  1.0000
  C   C29       1.0  0.74938  0.18287  0.26744  1.0000
  C   C30       1.0  0.72345  0.17344  0.26855  1.0000
  H   H11       1.0  0.71392  0.17075  0.20829  1.0000
  N   N11       1.0  0.76248  0.18771  0.18452  1.0000
  O   O21       1.0  0.76457  0.16735  0.13788  1.0000
  O   O22       1.0  0.75100  0.20470  0.13813  1.0000
  C   C31       1.0  0.26821  0.83473  0.26739  1.0000
  C   C32       1.0  0.29414  0.84414  0.26851  1.0000
  H   H12       1.0  0.30369  0.84681  0.20827  1.0000
  N   N12       1.0  0.25511  0.82987  0.18446  1.0000
  O   O23       1.0  0.25304  0.85022  0.13776  1.0000
  O   O24       1.0  0.26660  0.81287  0.13814  1.0000
  C   C33       1.0  0.84886  0.30697  0.35067  1.0000
  C   C34       1.0  0.84380  0.29387  0.26846  1.0000
  C   C35       1.0  0.83447  0.26790  0.26732  1.0000
  C   C36       1.0  0.82944  0.25495  0.35060  1.0000
  H   H13       1.0  0.84649  0.30341  0.20822  1.0000
  N   N13       1.0  0.82968  0.25479  0.18438  1.0000
  O   O25       1.0  0.81264  0.26622  0.13803  1.0000
  O   O26       1.0  0.85004  0.25279  0.13771  1.0000
  C   C37       1.0  0.16874  0.71061  0.35077  1.0000
  C   C38       1.0  0.17383  0.72369  0.26853  1.0000
  C   C39       1.0  0.18316  0.74966  0.26735  1.0000
  C   C40       1.0  0.18816  0.76263  0.35062  1.0000
  H   H14       1.0  0.17116  0.71414  0.20832  1.0000
  N   N14       1.0  0.18797  0.76275  0.18439  1.0000
  O   O27       1.0  0.20503  0.75131  0.13813  1.0000
  O   O28       1.0  0.16762  0.76474  0.13767  1.0000
  C   C41       1.0  0.30692  0.16864  0.35072  1.0000
  C   C42       1.0  0.29383  0.17372  0.26850  1.0000
  C   C43       1.0  0.26787  0.18308  0.26731  1.0000
  C   C44       1.0  0.25491  0.18812  0.35058  1.0000
  H   H15       1.0  0.30337  0.17103  0.20826  1.0000
  N   N15       1.0  0.25477  0.18789  0.18435  1.0000
  O   O29       1.0  0.26623  0.20491  0.13802  1.0000
  O   O30       1.0  0.25276  0.16753  0.13770  1.0000
  C   C45       1.0  0.71057  0.84877  0.35084  1.0000
  C   C46       1.0  0.72364  0.84370  0.26857  1.0000
  C   C47       1.0  0.74961  0.83438  0.26738  1.0000
  C   C48       1.0  0.76260  0.82940  0.35064  1.0000
  H   H16       1.0  0.71407  0.84634  0.20837  1.0000
  N   N16       1.0  0.76270  0.82956  0.18441  1.0000
  O   O31       1.0  0.75126  0.81250  0.13820  1.0000
  O   O32       1.0  0.76466  0.84991  0.13764  1.0000
  C   C49       1.0  0.39624  0.07075  0.26779  1.0000
  C   C50       1.0  0.38631  0.09662  0.26887  1.0000
  H   H17       1.0  0.38291  0.10585  0.20851  1.0000
  N   N17       1.0  0.40180  0.05805  0.18471  1.0000
  O   O33       1.0  0.41884  0.07007  0.14018  1.0000
  O   O34       1.0  0.38178  0.05578  0.13644  1.0000
  C   C51       1.0  0.62235  0.94716  0.26946  1.0000
  C   C52       1.0  0.63226  0.92128  0.27036  1.0000
  H   H18       1.0  0.63633  0.91234  0.20996  1.0000
  N   N18       1.0  0.61756  0.96021  0.18646  1.0000
  O   O35       1.0  0.60087  0.94843  0.13959  1.0000
  O   O36       1.0  0.63798  0.96261  0.14039  1.0000
  C   C53       1.0  0.94675  0.39626  0.26778  1.0000
  C   C54       1.0  0.92087  0.38635  0.26888  1.0000
  H   H19       1.0  0.91164  0.38294  0.20852  1.0000
  N   N19       1.0  0.95945  0.40181  0.18471  1.0000
  O   O37       1.0  0.94744  0.41884  0.14012  1.0000
  O   O38       1.0  0.96172  0.38178  0.13648  1.0000
  C   C55       1.0  0.07035  0.62238  0.26946  1.0000
  C   C56       1.0  0.09622  0.63230  0.27036  1.0000
  H   H20       1.0  0.10516  0.63637  0.20997  1.0000
  N   N20       1.0  0.05730  0.61759  0.18646  1.0000
  O   O39       1.0  0.06909  0.60091  0.13957  1.0000
  O   O40       1.0  0.05489  0.63801  0.14039  1.0000
  C   C57       1.0  0.63604  0.10955  0.35009  1.0000
  C   C58       1.0  0.63012  0.09650  0.26832  1.0000
  C   C59       1.0  0.62039  0.07055  0.26717  1.0000
  C   C60       1.0  0.61674  0.05670  0.34979  1.0000
  H   H21       1.0  0.63273  0.10604  0.20806  1.0000
  N   N21       1.0  0.61402  0.05814  0.18426  1.0000
  O   O41       1.0  0.63352  0.05624  0.13326  1.0000
  O   O42       1.0  0.59640  0.07016  0.14262  1.0000
  C   C61       1.0  0.38156  0.90797  0.35115  1.0000
  C   C62       1.0  0.38639  0.92149  0.26943  1.0000
  C   C63       1.0  0.39620  0.94741  0.26850  1.0000
  C   C64       1.0  0.40092  0.96081  0.35138  1.0000
  H   H22       1.0  0.38303  0.91227  0.20902  1.0000
  N   N22       1.0  0.40169  0.96018  0.18550  1.0000
  O   O43       1.0  0.38166  0.96239  0.13729  1.0000
  O   O44       1.0  0.41877  0.94825  0.14082  1.0000
  C   C65       1.0  0.10951  0.38154  0.35114  1.0000
  C   C66       1.0  0.09599  0.38636  0.26943  1.0000
  C   C67       1.0  0.07008  0.39618  0.26850  1.0000
  C   C68       1.0  0.05669  0.40092  0.35138  1.0000
  H   H23       1.0  0.10521  0.38300  0.20901  1.0000
  N   N23       1.0  0.05731  0.40168  0.18550  1.0000
  O   O45       1.0  0.05507  0.38164  0.13731  1.0000
  O   O46       1.0  0.06924  0.41874  0.14079  1.0000
  C   C69       1.0  0.90794  0.63599  0.35007  1.0000
  C   C70       1.0  0.92099  0.63009  0.26831  1.0000
  C   C71       1.0  0.94695  0.62039  0.26717  1.0000
  C   C72       1.0  0.96081  0.61675  0.34978  1.0000
  H   H24       1.0  0.91145  0.63269  0.20805  1.0000
  N   N24       1.0  0.95936  0.61402  0.18427  1.0000
  O   O47       1.0  0.96125  0.63351  0.13324  1.0000
  O   O48       1.0  0.94735  0.59638  0.14266  1.0000
  C   C73       1.0  0.52270  0.00999  0.26802  1.0000
  C   C74       1.0  0.49508  0.01021  0.26908  1.0000
  H   H25       1.0  0.48520  0.01119  0.20889  1.0000
  N   N25       1.0  0.53667  0.01097  0.18517  1.0000
  O   O49       1.0  0.53150  0.99177  0.13558  1.0000
  O   O50       1.0  0.53183  0.03146  0.14186  1.0000
  C   C75       1.0  0.00753  0.52272  0.26802  1.0000
  C   C76       1.0  0.00731  0.49510  0.26908  1.0000
  H   H26       1.0  0.00634  0.48522  0.20889  1.0000
  N   N26       1.0  0.00654  0.53668  0.18518  1.0000
  O   O51       1.0  0.02575  0.53152  0.13558  1.0000
  O   O52       1.0  0.98605  0.53184  0.14187  1.0000
  C   C77       1.0  0.20513  0.39092  0.35071  1.0000
  C   C78       1.0  0.21872  0.39514  0.26876  1.0000
  C   C79       1.0  0.24485  0.40419  0.26757  1.0000
  C   C80       1.0  0.25817  0.40866  0.35060  1.0000
  H   H27       1.0  0.20980  0.39085  0.20850  1.0000
  N   N27       1.0  0.25818  0.40821  0.18458  1.0000
  O   O53       1.0  0.25994  0.38753  0.13946  1.0000
  O   O54       1.0  0.24707  0.42513  0.13678  1.0000
  C   C81       1.0  0.81230  0.62660  0.34974  1.0000
  C   C82       1.0  0.79871  0.62230  0.26783  1.0000
  C   C83       1.0  0.77259  0.61323  0.26683  1.0000
  C   C84       1.0  0.75929  0.60880  0.34995  1.0000
  H   H28       1.0  0.80762  0.62656  0.20752  1.0000
  N   N28       1.0  0.75923  0.60915  0.18394  1.0000
  O   O55       1.0  0.75745  0.62979  0.13866  1.0000
  O   O56       1.0  0.77033  0.59220  0.13623  1.0000
  C   C85       1.0  0.62661  0.20518  0.34960  1.0000
  C   C86       1.0  0.62231  0.21879  0.26775  1.0000
  C   C87       1.0  0.61322  0.24490  0.26678  1.0000
  C   C88       1.0  0.60881  0.25819  0.34992  1.0000
  H   H29       1.0  0.62653  0.20988  0.20741  1.0000
  N   N29       1.0  0.60912  0.25826  0.18390  1.0000
  O   O57       1.0  0.62975  0.26006  0.13857  1.0000
  O   O58       1.0  0.59217  0.24715  0.13622  1.0000
  C   C89       1.0  0.39092  0.81234  0.35055  1.0000
  C   C90       1.0  0.39517  0.79876  0.26862  1.0000
  C   C91       1.0  0.40423  0.77263  0.26749  1.0000
  C   C92       1.0  0.40867  0.75931  0.35055  1.0000
  H   H30       1.0  0.39092  0.80769  0.20835  1.0000
  N   N30       1.0  0.40828  0.75930  0.18453  1.0000
  O   O59       1.0  0.38762  0.75754  0.13932  1.0000
  O   O60       1.0  0.42521  0.77040  0.13680  1.0000
  C   C93       1.0  0.77215  0.40411  0.26802  1.0000
  C   C94       1.0  0.79825  0.39498  0.26909  1.0000
  H   H31       1.0  0.80715  0.39070  0.20879  1.0000
  N   N31       1.0  0.75884  0.40818  0.18504  1.0000
  O   O61       1.0  0.77002  0.42505  0.13726  1.0000
  O   O62       1.0  0.75704  0.38751  0.13990  1.0000
  C   C95       1.0  0.24532  0.61342  0.26878  1.0000
  C   C96       1.0  0.21924  0.62259  0.27000  1.0000
  H   H32       1.0  0.21033  0.62694  0.20977  1.0000
  N   N32       1.0  0.25861  0.60939  0.18572  1.0000
  O   O63       1.0  0.24740  0.59255  0.13786  1.0000
  O   O64       1.0  0.26043  0.63008  0.14072  1.0000
  C   C97       1.0  0.40407  0.24531  0.26806  1.0000
  C   C98       1.0  0.39494  0.21922  0.26917  1.0000
  H   H33       1.0  0.39063  0.21032  0.20890  1.0000
  N   N33       1.0  0.40813  0.25862  0.18507  1.0000
  O   O65       1.0  0.42499  0.24743  0.13726  1.0000
  O   O66       1.0  0.38746  0.26042  0.13997  1.0000
  C   C99       1.0  0.61346  0.77215  0.26881  1.0000
  C   C100      1.0  0.62261  0.79824  0.27009  1.0000
  H   H34       1.0  0.62696  0.80716  0.20987  1.0000
  N   N34       1.0  0.60945  0.75887  0.18574  1.0000
  O   O67       1.0  0.59263  0.77008  0.13781  1.0000
  O   O68       1.0  0.63016  0.75706  0.14081  1.0000
  C   C101      1.0  0.31760  0.49490  0.26795  1.0000
  C   C102      1.0  0.31787  0.52258  0.26914  1.0000
  H   H35       1.0  0.31709  0.53243  0.20888  1.0000
  N   N35       1.0  0.31649  0.48104  0.18492  1.0000
  O   O69       1.0  0.33591  0.48582  0.13593  1.0000
  O   O70       1.0  0.29620  0.48638  0.14108  1.0000
  C   C103      1.0  0.69990  0.52257  0.26781  1.0000
  C   C104      1.0  0.69963  0.49489  0.26897  1.0000
  H   H36       1.0  0.70045  0.48504  0.20870  1.0000
  N   N36       1.0  0.70102  0.53643  0.18478  1.0000
  O   O71       1.0  0.68161  0.53164  0.13575  1.0000
  O   O72       1.0  0.72132  0.53111  0.14098  1.0000
  C   C105      1.0  0.52256  0.31757  0.26782  1.0000
  C   C106      1.0  0.49489  0.31784  0.26900  1.0000
  H   H37       1.0  0.48503  0.31703  0.20873  1.0000
  N   N37       1.0  0.53642  0.31647  0.18479  1.0000
  O   O73       1.0  0.53163  0.33588  0.13581  1.0000
  O   O74       1.0  0.53110  0.29618  0.14096  1.0000
  C   C107      1.0  0.49490  0.69990  0.26800  1.0000
  C   C108      1.0  0.52258  0.69962  0.26920  1.0000
  H   H38       1.0  0.53244  0.70042  0.20894  1.0000
  N   N38       1.0  0.48104  0.70101  0.18496  1.0000
  O   O75       1.0  0.48583  0.68159  0.13598  1.0000
  O   O76       1.0  0.48638  0.72130  0.14112  1.0000
  C   C109      1.0  0.39105  0.35145  0.35082  1.0000
  C   C110      1.0  0.38082  0.36146  0.26900  1.0000
  C   C111      1.0  0.36112  0.38096  0.26787  1.0000
  C   C112      1.0  0.35108  0.39105  0.35066  1.0000
  H   H39       1.0  0.38747  0.35419  0.20866  1.0000
  N   N39       1.0  0.35092  0.39037  0.18483  1.0000
  O   O77       1.0  0.34041  0.37250  0.13965  1.0000
  O   O78       1.0  0.36829  0.40080  0.13714  1.0000
  C   C113      1.0  0.62640  0.66600  0.35089  1.0000
  C   C114      1.0  0.63662  0.65600  0.26903  1.0000
  C   C115      1.0  0.65632  0.63651  0.26784  1.0000
  C   C116      1.0  0.66638  0.62641  0.35060  1.0000
  H   H40       1.0  0.62997  0.66327  0.20873  1.0000
  N   N40       1.0  0.66651  0.62710  0.18477  1.0000
  O   O79       1.0  0.67701  0.64498  0.13958  1.0000
  O   O80       1.0  0.64914  0.61667  0.13711  1.0000
  C   C117      1.0  0.66602  0.39106  0.35079  1.0000
  C   C118      1.0  0.65602  0.38082  0.26896  1.0000
  C   C119      1.0  0.63651  0.36114  0.26780  1.0000
  C   C120      1.0  0.62640  0.35110  0.35057  1.0000
  H   H41       1.0  0.66329  0.38747  0.20864  1.0000
  N   N41       1.0  0.62710  0.35094  0.18475  1.0000
  O   O81       1.0  0.64498  0.34042  0.13959  1.0000
  O   O82       1.0  0.61669  0.36831  0.13704  1.0000
  C   C121      1.0  0.35146  0.62642  0.35095  1.0000
  C   C122      1.0  0.36149  0.63663  0.26911  1.0000
  C   C123      1.0  0.38098  0.65633  0.26795  1.0000
  C   C124      1.0  0.39106  0.66640  0.35072  1.0000
  H   H42       1.0  0.35423  0.62996  0.20879  1.0000
  N   N42       1.0  0.39040  0.66652  0.18489  1.0000
  O   O83       1.0  0.37253  0.67701  0.13965  1.0000
  O   O84       1.0  0.40084  0.64914  0.13727  1.0000
  C   C125      1.0  0.06236  0.09577  0.35110  1.0000
  N   N43       1.0  0.08098  0.11446  0.35089  1.0000
  C   C126      1.0  0.10651  0.10755  0.35083  1.0000
  N   N44       1.0  0.11343  0.08204  0.35098  1.0000
  C   C127      1.0  0.09476  0.06341  0.35118  1.0000
  N   N45       1.0  0.06935  0.07037  0.35125  1.0000
  C   C128      1.0  0.95517  0.92174  0.35111  1.0000
  N   N46       1.0  0.93655  0.90305  0.35089  1.0000
  C   C129      1.0  0.91102  0.90997  0.35083  1.0000
  N   N47       1.0  0.90409  0.93548  0.35098  1.0000
  C   C130      1.0  0.92276  0.95411  0.35119  1.0000
  N   N48       1.0  0.94817  0.94715  0.35126  1.0000
  C   C131      1.0  0.92173  0.06235  0.35123  1.0000
  N   N49       1.0  0.90304  0.08098  0.35104  1.0000
  C   C132      1.0  0.90996  0.10650  0.35086  1.0000
  N   N50       1.0  0.93548  0.11343  0.35088  1.0000
  C   C133      1.0  0.95410  0.09475  0.35109  1.0000
  N   N51       1.0  0.94714  0.06934  0.35127  1.0000
  C   C134      1.0  0.09575  0.95516  0.35123  1.0000
  N   N52       1.0  0.11445  0.93655  0.35102  1.0000
  C   C135      1.0  0.10754  0.91102  0.35083  1.0000
  N   N53       1.0  0.08203  0.90408  0.35087  1.0000
  C   C136      1.0  0.06339  0.92275  0.35110  1.0000
  N   N54       1.0  0.07035  0.94816  0.35129  1.0000
  C   C137      1.0  0.22860  0.19633  0.35051  1.0000
  N   N55       1.0  0.22165  0.22194  0.35060  1.0000
  C   C138      1.0  0.19604  0.22894  0.35065  1.0000
  N   N56       1.0  0.17753  0.21013  0.35064  1.0000
  C   C139      1.0  0.18427  0.18464  0.35055  1.0000
  N   N57       1.0  0.20975  0.17784  0.35050  1.0000
  C   C140      1.0  0.78891  0.82121  0.35055  1.0000
  N   N58       1.0  0.79586  0.79559  0.35063  1.0000
  C   C141      1.0  0.82146  0.78859  0.35068  1.0000
  N   N59       1.0  0.83998  0.80740  0.35066  1.0000
  C   C142      1.0  0.83324  0.83289  0.35057  1.0000
  N   N60       1.0  0.80776  0.83970  0.35053  1.0000
  C   C143      1.0  0.82124  0.22864  0.35059  1.0000
  N   N61       1.0  0.79562  0.22170  0.35068  1.0000
  C   C144      1.0  0.78861  0.19610  0.35074  1.0000
  N   N62       1.0  0.80742  0.17757  0.35072  1.0000
  C   C145      1.0  0.83291  0.18431  0.35062  1.0000
  N   N63       1.0  0.83972  0.20979  0.35056  1.0000
  C   C146      1.0  0.19635  0.78895  0.35055  1.0000
  N   N64       1.0  0.22196  0.79591  0.35062  1.0000
  C   C147      1.0  0.22896  0.82151  0.35067  1.0000
  N   N65       1.0  0.21014  0.84003  0.35066  1.0000
  C   C148      1.0  0.18465  0.83327  0.35058  1.0000
  N   N66       1.0  0.17786  0.80779  0.35054  1.0000
  C   C149      1.0  0.41348  0.98576  0.35144  1.0000
  N   N67       1.0  0.40049  0.00908  0.35097  1.0000
  C   C150      1.0  0.41355  0.03236  0.35055  1.0000
  N   N68       1.0  0.44004  0.03178  0.35051  1.0000
  C   C151      1.0  0.45348  0.00900  0.35108  1.0000
  N   N69       1.0  0.43997  0.98626  0.35159  1.0000
  C   C152      1.0  0.60422  0.03173  0.35013  1.0000
  N   N70       1.0  0.61722  0.00842  0.35110  1.0000
  C   C153      1.0  0.60415  0.98515  0.35211  1.0000
  N   N71       1.0  0.57768  0.98571  0.35224  1.0000
  C   C154      1.0  0.56426  0.00849  0.35116  1.0000
  N   N72       1.0  0.57774  0.03124  0.35005  1.0000
  C   C155      1.0  0.03174  0.41349  0.35143  1.0000
  N   N73       1.0  0.00842  0.40050  0.35097  1.0000
  C   C156      1.0  0.98514  0.41358  0.35057  1.0000
  N   N74       1.0  0.98572  0.44006  0.35051  1.0000
  C   C157      1.0  0.00851  0.45349  0.35108  1.0000
  N   N75       1.0  0.03125  0.43997  0.35159  1.0000
  C   C158      1.0  0.98578  0.60423  0.35014  1.0000
  N   N76       1.0  0.00909  0.61724  0.35110  1.0000
  C   C159      1.0  0.03237  0.60417  0.35211  1.0000
  N   N77       1.0  0.03180  0.57769  0.35224  1.0000
  C   C160      1.0  0.00902  0.56427  0.35117  1.0000
  N   N78       1.0  0.98628  0.57776  0.35005  1.0000
  C   C161      1.0  0.33008  0.40948  0.35059  1.0000
  N   N79       1.0  0.33429  0.43578  0.35067  1.0000
  C   C162      1.0  0.31408  0.45311  0.35069  1.0000
  N   N80       1.0  0.28937  0.44361  0.35065  1.0000
  C   C163      1.0  0.28443  0.41763  0.35056  1.0000
  N   N81       1.0  0.30497  0.40083  0.35055  1.0000
  C   C164      1.0  0.68738  0.60798  0.35046  1.0000
  N   N82       1.0  0.68318  0.58168  0.35063  1.0000
  C   C165      1.0  0.70338  0.56436  0.35052  1.0000
  N   N83       1.0  0.72810  0.57386  0.35027  1.0000
  C   C166      1.0  0.73304  0.59984  0.35009  1.0000
  N   N84       1.0  0.71249  0.61663  0.35020  1.0000
  C   C167      1.0  0.60797  0.33010  0.35047  1.0000
  N   N85       1.0  0.58167  0.33430  0.35064  1.0000
  C   C168      1.0  0.56435  0.31409  0.35054  1.0000
  N   N86       1.0  0.57385  0.28938  0.35028  1.0000
  C   C169      1.0  0.59984  0.28445  0.35009  1.0000
  N   N87       1.0  0.61663  0.30499  0.35020  1.0000
  C   C170      1.0  0.40949  0.68740  0.35063  1.0000
  N   N88       1.0  0.43578  0.68319  0.35072  1.0000
  C   C171      1.0  0.45311  0.70340  0.35070  1.0000
  N   N89       1.0  0.44361  0.72811  0.35064  1.0000
  C   C172      1.0  0.41763  0.73305  0.35055  1.0000
  N   N90       1.0  0.40083  0.71251  0.35056  1.0000
  C   C173      1.0  0.68693  0.40946  0.35091  1.0000
  N   N91       1.0  0.68274  0.43577  0.35089  1.0000
  C   C174      1.0  0.70294  0.45312  0.35101  1.0000
  N   N92       1.0  0.72765  0.44360  0.35112  1.0000
  C   C175      1.0  0.73260  0.41761  0.35114  1.0000
  N   N93       1.0  0.71205  0.40082  0.35102  1.0000
  C   C176      1.0  0.33056  0.60801  0.35109  1.0000
  N   N94       1.0  0.33476  0.58170  0.35097  1.0000
  C   C177      1.0  0.31456  0.56434  0.35120  1.0000
  N   N95       1.0  0.28985  0.57386  0.35153  1.0000
  C   C178      1.0  0.28489  0.59985  0.35165  1.0000
  N   N96       1.0  0.30544  0.61664  0.35141  1.0000
  C   C179      1.0  0.40945  0.33054  0.35089  1.0000
  N   N97       1.0  0.43577  0.33473  0.35088  1.0000
  C   C180      1.0  0.45312  0.31452  0.35100  1.0000
  N   N98       1.0  0.44360  0.28981  0.35112  1.0000
  C   C181      1.0  0.41761  0.28486  0.35112  1.0000
  N   N99       1.0  0.40082  0.30542  0.35100  1.0000
  C   C182      1.0  0.60800  0.68691  0.35104  1.0000
  N   N100      1.0  0.58169  0.68272  0.35096  1.0000
  C   C183      1.0  0.56434  0.70293  0.35121  1.0000
  N   N101      1.0  0.57386  0.72764  0.35154  1.0000
  C   C184      1.0  0.59985  0.73259  0.35161  1.0000
  N   N102      1.0  0.61664  0.71203  0.35135  1.0000
  C   C185      1.0  0.18153  0.37649  0.35072  1.0000
  N   N103      1.0  0.15697  0.38680  0.35090  1.0000
  C   C186      1.0  0.13534  0.37116  0.35101  1.0000
  N   N104      1.0  0.13888  0.34481  0.35095  1.0000
  C   C187      1.0  0.16319  0.33420  0.35079  1.0000
  N   N105      1.0  0.18407  0.35025  0.35068  1.0000
  C   C188      1.0  0.83590  0.64102  0.34963  1.0000
  N   N106      1.0  0.86047  0.63071  0.34953  1.0000
  C   C189      1.0  0.88209  0.64635  0.35010  1.0000
  N   N107      1.0  0.87855  0.67270  0.35070  1.0000
  C   C190      1.0  0.85425  0.68331  0.35067  1.0000
  N   N108      1.0  0.83337  0.66726  0.35019  1.0000
  C   C191      1.0  0.64105  0.18158  0.34965  1.0000
  N   N109      1.0  0.63074  0.15701  0.34953  1.0000
  C   C192      1.0  0.64639  0.13539  0.35013  1.0000
  N   N110      1.0  0.67274  0.13894  0.35074  1.0000
  C   C193      1.0  0.68334  0.16325  0.35071  1.0000
  N   N111      1.0  0.66728  0.18413  0.35019  1.0000
  C   C194      1.0  0.37650  0.83595  0.35072  1.0000
  N   N112      1.0  0.38683  0.86051  0.35089  1.0000
  C   C195      1.0  0.37119  0.88214  0.35103  1.0000
  N   N113      1.0  0.34484  0.87861  0.35098  1.0000
  C   C196      1.0  0.33422  0.85431  0.35081  1.0000
  N   N114      1.0  0.35027  0.83342  0.35067  1.0000
  C   C197      1.0  0.83544  0.37627  0.35098  1.0000
  N   N115      1.0  0.85998  0.38662  0.35088  1.0000
  C   C198      1.0  0.88162  0.37101  0.35075  1.0000
  N   N116      1.0  0.87813  0.34466  0.35068  1.0000
  C   C199      1.0  0.85384  0.33400  0.35077  1.0000
  N   N117      1.0  0.83293  0.35003  0.35089  1.0000
  C   C200      1.0  0.18212  0.64131  0.35214  1.0000
  N   N118      1.0  0.15757  0.63096  0.35237  1.0000
  C   C201      1.0  0.13593  0.64659  0.35182  1.0000
  N   N119      1.0  0.13945  0.67294  0.35109  1.0000
  C   C202      1.0  0.16374  0.68358  0.35099  1.0000
  N   N120      1.0  0.18464  0.66754  0.35146  1.0000
  C   C203      1.0  0.37622  0.18205  0.35096  1.0000
  N   N121      1.0  0.38657  0.15751  0.35088  1.0000
  C   C204      1.0  0.37096  0.13587  0.35070  1.0000
  N   N122      1.0  0.34461  0.13937  0.35064  1.0000
  C   C205      1.0  0.33395  0.16366  0.35073  1.0000
  N   N123      1.0  0.34998  0.18456  0.35090  1.0000
  C   C206      1.0  0.64126  0.83539  0.35209  1.0000
  N   N124      1.0  0.63092  0.85993  0.35237  1.0000
  C   C207      1.0  0.64654  0.88157  0.35180  1.0000
  N   N125      1.0  0.67289  0.87806  0.35108  1.0000
  C   C208      1.0  0.68354  0.85376  0.35097  1.0000
  N   N126      1.0  0.66750  0.83287  0.35145  1.0000
  C   C209      1.0  0.13552  0.13650  0.43437  1.0000
  C   C210      1.0  0.15510  0.15583  0.43321  1.0000
  H   H43       1.0  0.16214  0.16289  0.49336  1.0000
  N   N127      1.0  0.12550  0.12673  0.51727  1.0000
  O   O85       1.0  0.11507  0.14441  0.56356  1.0000
  O   O86       1.0  0.14296  0.11611  0.56405  1.0000
  C   C211      1.0  0.88200  0.88103  0.43437  1.0000
  C   C212      1.0  0.86242  0.86170  0.43323  1.0000
  H   H44       1.0  0.85538  0.85465  0.49338  1.0000
  N   N128      1.0  0.89202  0.89079  0.51728  1.0000
  O   O87       1.0  0.90245  0.87311  0.56359  1.0000
  O   O88       1.0  0.87456  0.90143  0.56403  1.0000
  C   C213      1.0  0.88102  0.13551  0.43441  1.0000
  C   C214      1.0  0.86169  0.15511  0.43326  1.0000
  H   H45       1.0  0.85464  0.16214  0.49342  1.0000
  N   N129      1.0  0.89077  0.12548  0.51731  1.0000
  O   O89       1.0  0.87308  0.11505  0.56357  1.0000
  O   O90       1.0  0.90140  0.14293  0.56411  1.0000
  C   C215      1.0  0.13650  0.88202  0.43437  1.0000
  C   C216      1.0  0.15585  0.86245  0.43323  1.0000
  H   H46       1.0  0.16290  0.85542  0.49339  1.0000
  N   N130      1.0  0.12674  0.89205  0.51728  1.0000
  O   O91       1.0  0.14442  0.90248  0.56356  1.0000
  O   O92       1.0  0.11612  0.87458  0.56406  1.0000
  C   C217      1.0  0.10162  0.98174  0.35140  1.0000
  C   C218      1.0  0.10145  0.99556  0.43390  1.0000
  C   C219      1.0  0.10094  0.02306  0.43496  1.0000
  C   C220      1.0  0.10073  0.03674  0.35133  1.0000
  H   H47       1.0  0.10013  0.98564  0.49398  1.0000
  N   N131      1.0  0.09920  0.03698  0.51781  1.0000
  O   O93       1.0  0.07879  0.03138  0.56058  1.0000
  O   O94       1.0  0.11846  0.03254  0.56795  1.0000
  C   C221      1.0  0.91586  0.03577  0.35139  1.0000
  C   C222      1.0  0.91601  0.02196  0.43389  1.0000
  C   C223      1.0  0.91655  0.99446  0.43494  1.0000
  C   C224      1.0  0.91679  0.98077  0.35133  1.0000
  H   H48       1.0  0.91733  0.03188  0.49396  1.0000
  N   N132      1.0  0.91830  0.98054  0.51781  1.0000
  O   O95       1.0  0.93869  0.98616  0.56062  1.0000
  O   O96       1.0  0.89902  0.98496  0.56791  1.0000
  C   C225      1.0  0.03578  0.10165  0.35112  1.0000
  C   C226      1.0  0.02197  0.10149  0.43364  1.0000
  C   C227      1.0  0.99446  0.10092  0.43472  1.0000
  C   C228      1.0  0.98076  0.10072  0.35112  1.0000
  H   H49       1.0  0.03188  0.10011  0.49371  1.0000
  N   N133      1.0  0.98056  0.09914  0.51761  1.0000
  O   O97       1.0  0.98620  0.07874  0.56031  1.0000
  O   O98       1.0  0.98498  0.11840  0.56779  1.0000
  C   C229      1.0  0.98175  0.91586  0.35114  1.0000
  C   C230      1.0  0.99554  0.91603  0.43370  1.0000
  C   C231      1.0  0.02305  0.91658  0.43477  1.0000
  C   C232      1.0  0.03673  0.91676  0.35114  1.0000
  H   H50       1.0  0.98562  0.91743  0.49375  1.0000
  N   N134      1.0  0.03696  0.91836  0.51764  1.0000
  O   O99       1.0  0.03133  0.93877  0.56032  1.0000
  O   O100      1.0  0.03254  0.89911  0.56783  1.0000
  C   C233      1.0  0.16822  0.30718  0.35081  1.0000
  C   C234      1.0  0.17334  0.29408  0.43298  1.0000
  C   C235      1.0  0.18277  0.26815  0.43405  1.0000
  C   C236      1.0  0.18785  0.25525  0.35072  1.0000
  H   H51       1.0  0.17062  0.30360  0.49325  1.0000
  N   N135      1.0  0.18759  0.25503  0.51694  1.0000
  O   O101      1.0  0.20456  0.26651  0.56342  1.0000
  O   O102      1.0  0.16722  0.25293  0.56351  1.0000
  C   C237      1.0  0.84922  0.71033  0.35079  1.0000
  C   C238      1.0  0.84409  0.72342  0.43297  1.0000
  C   C239      1.0  0.83468  0.74936  0.43404  1.0000
  C   C240      1.0  0.82964  0.76228  0.35071  1.0000
  H   H52       1.0  0.84678  0.71389  0.49322  1.0000
  N   N136      1.0  0.82984  0.76247  0.51694  1.0000
  O   O103      1.0  0.81284  0.75100  0.56332  1.0000
  O   O104      1.0  0.85020  0.76455  0.56359  1.0000
  C   C241      1.0  0.71036  0.16829  0.35073  1.0000
  C   C242      1.0  0.72344  0.17344  0.43294  1.0000
  C   C243      1.0  0.74937  0.18287  0.43405  1.0000
  C   C244      1.0  0.76230  0.18791  0.35074  1.0000
  H   H53       1.0  0.71390  0.17076  0.49318  1.0000
  N   N137      1.0  0.76247  0.18772  0.51697  1.0000
  O   O105      1.0  0.75097  0.20472  0.56332  1.0000
  O   O106      1.0  0.76455  0.16737  0.56363  1.0000
  C   C245      1.0  0.30720  0.84929  0.35073  1.0000
  C   C246      1.0  0.29411  0.84419  0.43294  1.0000
  C   C247      1.0  0.26818  0.83477  0.43401  1.0000
  C   C248      1.0  0.25526  0.82971  0.35069  1.0000
  H   H54       1.0  0.30364  0.84689  0.49320  1.0000
  N   N138      1.0  0.25506  0.82995  0.51693  1.0000
  O   O107      1.0  0.26654  0.81296  0.56336  1.0000
  O   O108      1.0  0.25297  0.85031  0.56352  1.0000
  C   C249      1.0  0.83438  0.26792  0.43393  1.0000
  C   C250      1.0  0.84372  0.29388  0.43285  1.0000
  H   H55       1.0  0.84634  0.30343  0.49312  1.0000
  N   N139      1.0  0.82952  0.25481  0.51682  1.0000
  O   O109      1.0  0.84984  0.25282  0.56370  1.0000
  O   O110      1.0  0.81244  0.26625  0.56299  1.0000
  C   C251      1.0  0.18319  0.74969  0.43396  1.0000
  C   C252      1.0  0.17386  0.72373  0.43293  1.0000
  H   H56       1.0  0.17120  0.71420  0.49321  1.0000
  N   N140      1.0  0.18802  0.76282  0.51684  1.0000
  O   O111      1.0  0.16769  0.76483  0.56363  1.0000
  O   O112      1.0  0.20509  0.75140  0.56311  1.0000
  C   C253      1.0  0.26786  0.18317  0.43391  1.0000
  C   C254      1.0  0.29382  0.17382  0.43287  1.0000
  H   H57       1.0  0.30336  0.17118  0.49314  1.0000
  N   N141      1.0  0.25475  0.18804  0.51680  1.0000
  O   O113      1.0  0.25274  0.16772  0.56366  1.0000
  O   O114      1.0  0.26620  0.20511  0.56298  1.0000
  C   C255      1.0  0.74966  0.83437  0.43399  1.0000
  C   C256      1.0  0.72369  0.84369  0.43300  1.0000
  H   H58       1.0  0.71417  0.84634  0.49329  1.0000
  N   N142      1.0  0.76281  0.82956  0.51686  1.0000
  O   O115      1.0  0.76481  0.84990  0.56363  1.0000
  O   O116      1.0  0.75140  0.81249  0.56317  1.0000
  C   C257      1.0  0.38141  0.11007  0.35066  1.0000
  C   C258      1.0  0.38635  0.09662  0.43241  1.0000
  C   C259      1.0  0.39627  0.07075  0.43341  1.0000
  C   C260      1.0  0.40102  0.05733  0.35058  1.0000
  H   H59       1.0  0.38297  0.10584  0.49280  1.0000
  N   N143      1.0  0.40186  0.05804  0.51646  1.0000
  O   O117      1.0  0.38186  0.05577  0.56483  1.0000
  O   O118      1.0  0.41891  0.07006  0.56093  1.0000
  C   C261      1.0  0.63612  0.90738  0.35192  1.0000
  C   C262      1.0  0.63017  0.92039  0.43373  1.0000
  C   C263      1.0  0.62036  0.94631  0.43493  1.0000
  C   C264      1.0  0.61665  0.96017  0.35235  1.0000
  H   H60       1.0  0.63282  0.91085  0.49396  1.0000
  N   N144      1.0  0.61394  0.95867  0.51788  1.0000
  O   O119      1.0  0.63341  0.96060  0.56895  1.0000
  O   O120      1.0  0.59633  0.94658  0.55941  1.0000
  C   C265      1.0  0.90742  0.38146  0.35068  1.0000
  C   C266      1.0  0.92089  0.38638  0.43243  1.0000
  C   C267      1.0  0.94676  0.39629  0.43342  1.0000
  C   C268      1.0  0.96016  0.40106  0.35057  1.0000
  H   H61       1.0  0.91166  0.38300  0.49282  1.0000
  N   N145      1.0  0.95948  0.40187  0.51646  1.0000
  O   O121      1.0  0.96175  0.38186  0.56479  1.0000
  O   O122      1.0  0.94746  0.41892  0.56099  1.0000
  C   C269      1.0  0.11012  0.63616  0.35192  1.0000
  C   C270      1.0  0.09711  0.63021  0.43373  1.0000
  C   C271      1.0  0.07120  0.62038  0.43493  1.0000
  C   C272      1.0  0.05735  0.61667  0.35233  1.0000
  H   H62       1.0  0.10665  0.63286  0.49396  1.0000
  N   N146      1.0  0.05884  0.61396  0.51788  1.0000
  O   O123      1.0  0.05690  0.63344  0.56894  1.0000
  O   O124      1.0  0.07093  0.59637  0.55942  1.0000
  C   C273      1.0  0.62247  0.06971  0.43264  1.0000
  C   C274      1.0  0.63230  0.09562  0.43167  1.0000
  H   H63       1.0  0.63638  0.10457  0.49204  1.0000
  N   N147      1.0  0.61779  0.05662  0.51566  1.0000
  O   O125      1.0  0.60113  0.06835  0.56281  1.0000
  O   O126      1.0  0.63828  0.05426  0.56143  1.0000
  C   C275      1.0  0.39618  0.94735  0.43413  1.0000
  C   C276      1.0  0.38638  0.92144  0.43298  1.0000
  H   H64       1.0  0.38300  0.91218  0.49331  1.0000
  N   N148      1.0  0.40166  0.96008  0.51722  1.0000
  O   O127      1.0  0.41872  0.94813  0.56189  1.0000
  O   O128      1.0  0.38160  0.96228  0.56536  1.0000
  C   C277      1.0  0.07014  0.39617  0.43414  1.0000
  C   C278      1.0  0.09605  0.38636  0.43298  1.0000
  H   H65       1.0  0.10530  0.38298  0.49331  1.0000
  N   N149      1.0  0.05741  0.40165  0.51722  1.0000
  O   O129      1.0  0.06937  0.41870  0.56190  1.0000
  O   O130      1.0  0.05520  0.38159  0.56535  1.0000
  C   C279      1.0  0.94778  0.62247  0.43262  1.0000
  C   C280      1.0  0.92187  0.63227  0.43166  1.0000
  H   H66       1.0  0.91292  0.63634  0.49202  1.0000
  N   N150      1.0  0.96087  0.61780  0.51565  1.0000
  O   O131      1.0  0.94916  0.60111  0.56277  1.0000
  O   O132      1.0  0.96322  0.63828  0.56146  1.0000
  C   C281      1.0  0.48102  0.00891  0.35111  1.0000
  C   C282      1.0  0.49506  0.00742  0.43315  1.0000
  C   C283      1.0  0.52268  0.00731  0.43424  1.0000
  C   C284      1.0  0.53662  0.00857  0.35114  1.0000
  H   H67       1.0  0.48516  0.00652  0.49332  1.0000
  N   N151      1.0  0.53662  0.00613  0.51709  1.0000
  O   O133      1.0  0.53153  0.98568  0.56030  1.0000
  O   O134      1.0  0.53168  0.02537  0.56677  1.0000
  C   C285      1.0  0.00860  0.48104  0.35111  1.0000
  C   C286      1.0  0.01008  0.49508  0.43315  1.0000
  C   C287      1.0  0.01019  0.52269  0.43425  1.0000
  C   C288      1.0  0.00894  0.53664  0.35114  1.0000
  H   H68       1.0  0.01097  0.48518  0.49333  1.0000
  N   N152      1.0  0.01135  0.53664  0.51711  1.0000
  O   O135      1.0  0.03179  0.53156  0.56037  1.0000
  O   O136      1.0  0.99209  0.53170  0.56674  1.0000
  C   C289      1.0  0.24486  0.40425  0.43368  1.0000
  C   C290      1.0  0.21873  0.39520  0.43260  1.0000
  H   H69       1.0  0.20981  0.39096  0.49291  1.0000
  N   N153      1.0  0.25820  0.40832  0.51662  1.0000
  O   O137      1.0  0.24710  0.42527  0.56431  1.0000
  O   O138      1.0  0.25996  0.38768  0.56188  1.0000
  C   C291      1.0  0.77263  0.61327  0.43297  1.0000
  C   C292      1.0  0.79875  0.62233  0.43175  1.0000
  H   H70       1.0  0.80768  0.62662  0.49198  1.0000
  N   N154      1.0  0.75931  0.60923  0.51598  1.0000
  O   O139      1.0  0.77043  0.59231  0.56374  1.0000
  O   O140      1.0  0.75755  0.62990  0.56113  1.0000
  C   C293      1.0  0.61331  0.24486  0.43290  1.0000
  C   C294      1.0  0.62238  0.21874  0.43162  1.0000
  H   H71       1.0  0.62668  0.20980  0.49185  1.0000
  N   N155      1.0  0.60930  0.25816  0.51594  1.0000
  O   O141      1.0  0.59239  0.24703  0.56374  1.0000
  O   O142      1.0  0.62997  0.25993  0.56102  1.0000
  C   C295      1.0  0.40423  0.77263  0.43361  1.0000
  C   C296      1.0  0.39518  0.79876  0.43250  1.0000
  H   H72       1.0  0.39093  0.80768  0.49279  1.0000
  N   N156      1.0  0.40828  0.75929  0.51657  1.0000
  O   O143      1.0  0.42522  0.77039  0.56430  1.0000
  O   O144      1.0  0.38763  0.75753  0.56179  1.0000
  C   C297      1.0  0.81185  0.39070  0.35096  1.0000
  C   C298      1.0  0.79829  0.39501  0.43292  1.0000
  C   C299      1.0  0.77219  0.40414  0.43412  1.0000
  C   C300      1.0  0.75886  0.40862  0.35110  1.0000
  H   H73       1.0  0.80722  0.39074  0.49318  1.0000
  N   N157      1.0  0.75892  0.40822  0.51716  1.0000
  O   O145      1.0  0.75714  0.38757  0.56237  1.0000
  O   O146      1.0  0.77012  0.42511  0.56481  1.0000
  C   C301      1.0  0.20570  0.62686  0.35199  1.0000
  C   C302      1.0  0.21924  0.62244  0.43391  1.0000
  C   C303      1.0  0.24533  0.61328  0.43490  1.0000
  C   C304      1.0  0.25863  0.60885  0.35179  1.0000
  H   H74       1.0  0.21033  0.62669  0.49422  1.0000
  N   N158      1.0  0.25863  0.60911  0.51784  1.0000
  O   O147      1.0  0.26044  0.62973  0.56323  1.0000
  O   O148      1.0  0.24742  0.59220  0.56540  1.0000
  C   C305      1.0  0.39065  0.20564  0.35111  1.0000
  C   C306      1.0  0.39499  0.21919  0.43304  1.0000
  C   C307      1.0  0.40415  0.24528  0.43418  1.0000
  C   C308      1.0  0.40861  0.25861  0.35112  1.0000
  H   H75       1.0  0.39075  0.21026  0.49331  1.0000
  N   N159      1.0  0.40827  0.25856  0.51719  1.0000
  O   O149      1.0  0.38763  0.26036  0.56247  1.0000
  O   O150      1.0  0.42517  0.24735  0.56479  1.0000
  C   C309      1.0  0.62682  0.81180  0.35210  1.0000
  C   C310      1.0  0.62240  0.79824  0.43395  1.0000
  C   C311      1.0  0.61324  0.77215  0.43492  1.0000
  C   C312      1.0  0.60885  0.75884  0.35179  1.0000
  H   H76       1.0  0.62660  0.80716  0.49429  1.0000
  N   N160      1.0  0.60906  0.75885  0.51785  1.0000
  O   O151      1.0  0.62967  0.75704  0.56331  1.0000
  O   O152      1.0  0.59213  0.77004  0.56535  1.0000
  C   C313      1.0  0.31807  0.53681  0.35108  1.0000
  C   C314      1.0  0.31765  0.52251  0.43288  1.0000
  C   C315      1.0  0.31738  0.49483  0.43382  1.0000
  C   C316      1.0  0.31761  0.48072  0.35081  1.0000
  H   H77       1.0  0.31670  0.53232  0.49321  1.0000
  N   N161      1.0  0.31610  0.48092  0.51670  1.0000
  O   O153      1.0  0.29572  0.48622  0.56007  1.0000
  O   O154      1.0  0.33541  0.48567  0.56623  1.0000
  C   C317      1.0  0.69944  0.48065  0.35090  1.0000
  C   C318      1.0  0.69981  0.49494  0.43272  1.0000
  C   C319      1.0  0.70006  0.52262  0.43368  1.0000
  C   C320      1.0  0.69986  0.53674  0.35069  1.0000
  H   H78       1.0  0.70075  0.48513  0.49305  1.0000
  N   N162      1.0  0.70133  0.53653  0.51657  1.0000
  O   O155      1.0  0.72170  0.53125  0.55996  1.0000
  O   O156      1.0  0.68200  0.53177  0.56604  1.0000
  C   C321      1.0  0.48065  0.31802  0.35095  1.0000
  C   C322      1.0  0.49494  0.31766  0.43277  1.0000
  C   C323      1.0  0.52262  0.31742  0.43372  1.0000
  C   C324      1.0  0.53673  0.31760  0.35071  1.0000
  H   H79       1.0  0.48513  0.31675  0.49310  1.0000
  N   N163      1.0  0.53654  0.31618  0.51660  1.0000
  O   O157      1.0  0.53126  0.29582  0.56007  1.0000
  O   O158      1.0  0.53177  0.33552  0.56602  1.0000
  C   C325      1.0  0.53681  0.69943  0.35116  1.0000
  C   C326      1.0  0.52251  0.69982  0.43296  1.0000
  C   C327      1.0  0.49483  0.70008  0.43389  1.0000
  C   C328      1.0  0.48073  0.69988  0.35088  1.0000
  H   H80       1.0  0.53232  0.70074  0.49329  1.0000
  N   N164      1.0  0.48091  0.70134  0.51676  1.0000
  O   O159      1.0  0.48620  0.72171  0.56020  1.0000
  O   O160      1.0  0.48566  0.68201  0.56623  1.0000
  C   C329      1.0  0.36114  0.38102  0.43353  1.0000
  C   C330      1.0  0.38083  0.36153  0.43255  1.0000
  H   H81       1.0  0.38749  0.35431  0.49295  1.0000
  N   N165      1.0  0.35094  0.39050  0.51649  1.0000
  O   O161      1.0  0.36831  0.40097  0.56408  1.0000
  O   O162      1.0  0.34043  0.37266  0.56184  1.0000
  C   C331      1.0  0.65633  0.63641  0.43351  1.0000
  C   C332      1.0  0.63663  0.65590  0.43259  1.0000
  H   H82       1.0  0.62998  0.66311  0.49301  1.0000
  N   N166      1.0  0.66653  0.62692  0.51644  1.0000
  O   O163      1.0  0.64916  0.61644  0.56400  1.0000
  O   O164      1.0  0.67703  0.64475  0.56183  1.0000
  C   C333      1.0  0.63642  0.36116  0.43346  1.0000
  C   C334      1.0  0.65592  0.38085  0.43251  1.0000
  H   H83       1.0  0.66313  0.38750  0.49292  1.0000
  N   N167      1.0  0.62693  0.35096  0.51641  1.0000
  O   O165      1.0  0.61646  0.36834  0.56397  1.0000
  O   O166      1.0  0.64476  0.34045  0.56179  1.0000
  C   C335      1.0  0.38103  0.65636  0.43361  1.0000
  C   C336      1.0  0.36154  0.63666  0.43266  1.0000
  H   H84       1.0  0.35432  0.63001  0.49308  1.0000
  N   N168      1.0  0.39051  0.66657  0.51656  1.0000
  O   O167      1.0  0.40098  0.64920  0.56416  1.0000
  O   O168      1.0  0.37267  0.67707  0.56190  1.0000
