data_image0
_chemical_formula_structural       C2HCHC5H2C2NC2H2NC2H3C2NCNC2H2CH2C5H2C5H2C2HC6H4C2HCH3CHCHC2H3C3H3C2HC4H2C2HC6H3C7H3C2HC6H3C2HC6H3C2HC6H3C2NCNC2H3CH3C2NCNC2H3CH3C2NCNC2H3CH3C2NCNC2H3CH3C2NCNC2H3CH3C5H2C2HC6H3C2HC6H3C2HCHC2HC6H3C2HC6H3C6H3C6H3C6H3C6H3C6H3C6H3C6H3C6H3C6H3C6H3C2NCNCH3C2NCNC2H3CH3NCNC2H3C2NCNC2H3CH3C2NCNC2H3CH3C2NCNC2H3CH3C2HC6H3C2HC6H3C2HC6H3C2HC6H3C2HC6H3NC2H3C2NCNC2H3CH3C2NCNC2H3CH3C2NC2H3C2NCNC2H3CH3C2NCNC2H3CH3
_chemical_formula_sum              "C324 H216 N36"
_cell_length_a       59.6007
_cell_length_b       59.6006
_cell_length_c       14.9034
_cell_angle_alpha    90
_cell_angle_beta     90
_cell_angle_gamma    120

_space_group_name_H-M_alt    "P 1"
_space_group_IT_number       1

loop_
  _space_group_symop_operation_xyz
  'x, y, z'

loop_
  _atom_site_type_symbol
  _atom_site_label
  _atom_site_symmetry_multiplicity
  _atom_site_fract_x
  _atom_site_fract_y
  _atom_site_fract_z
  _atom_site_occupancy
  C   C1        1.0  0.03655  0.40194  0.25636  1.0000
  C   C2        1.0  0.06386  0.41724  0.25892  1.0000
  H   H1        1.0  0.07388  0.42415  0.20001  1.0000
  C   C3        1.0  0.02268  0.39543  0.17470  1.0000
  H   H2        1.0  0.03230  0.40115  0.11475  1.0000
  C   C4        1.0  0.02276  0.64275  0.33858  1.0000
  C   C5        1.0  0.07743  0.66663  0.34085  1.0000
  C   C6        1.0  0.06384  0.66054  0.25846  1.0000
  C   C7        1.0  0.03653  0.64861  0.25616  1.0000
  C   C8        1.0  0.02260  0.64124  0.17461  1.0000
  H   H3        1.0  0.03218  0.64506  0.11458  1.0000
  H   H4        1.0  0.07383  0.66357  0.19953  1.0000
  C   C9        1.0  0.07742  0.42480  0.34138  1.0000
  C   C10       1.0  0.06270  0.41619  0.42194  1.0000
  N   N1        1.0  0.03641  0.40149  0.41652  1.0000
  C   C11       1.0  0.02272  0.39409  0.33864  1.0000
  C   C12       1.0  0.07359  0.42299  0.51370  1.0000
  H   H5        1.0  0.06775  0.40527  0.55184  1.0000
  H   H6        1.0  0.06611  0.43417  0.54730  1.0000
  N   N2        1.0  0.03649  0.64915  0.41640  1.0000
  C   C13       1.0  0.06279  0.66069  0.42145  1.0000
  C   C14       1.0  0.07468  0.66537  0.51170  1.0000
  H   H7        1.0  0.06012  0.65967  0.56451  1.0000
  H   H8        1.0  0.08870  0.68593  0.51979  1.0000
  H   H9        1.0  0.08453  0.65424  0.52024  1.0000
  C   C15       1.0  0.13897  0.51750  0.33747  1.0000
  C   C16       1.0  0.13977  0.53064  0.25691  1.0000
  N   N3        1.0  0.14088  0.55395  0.26269  1.0000
  C   C17       1.0  0.14135  0.56589  0.34087  1.0000
  N   N4        1.0  0.14102  0.60122  0.26303  1.0000
  C   C18       1.0  0.13994  0.62345  0.25785  1.0000
  C   C19       1.0  0.13881  0.52075  0.16501  1.0000
  H   H10       1.0  0.13818  0.50215  0.16414  1.0000
  H   H11       1.0  0.12162  0.51841  0.13051  1.0000
  C   C20       1.0  0.13907  0.63336  0.16761  1.0000
  H   H12       1.0  0.14008  0.62119  0.11479  1.0000
  H   H13       1.0  0.12106  0.63371  0.15929  1.0000
  C   C21       1.0  0.13461  0.49185  0.33838  1.0000
  C   C22       1.0  0.10897  0.47086  0.33931  1.0000
  C   C23       1.0  0.10379  0.44500  0.34053  1.0000
  C   C24       1.0  0.12486  0.44029  0.34084  1.0000
  C   C25       1.0  0.15077  0.46114  0.34026  1.0000
  H   H14       1.0  0.12130  0.42161  0.34185  1.0000
  H   H15       1.0  0.09386  0.47449  0.33910  1.0000
  C   C26       1.0  0.13473  0.65697  0.33904  1.0000
  C   C27       1.0  0.10908  0.65227  0.33929  1.0000
  C   C28       1.0  0.10383  0.67291  0.34055  1.0000
  C   C29       1.0  0.12486  0.69869  0.34140  1.0000
  C   C30       1.0  0.15080  0.70381  0.34132  1.0000
  H   H16       1.0  0.12126  0.71379  0.34234  1.0000
  H   H17       1.0  0.09399  0.63352  0.33875  1.0000
  C   C31       1.0  0.14074  0.55361  0.42314  1.0000
  C   C32       1.0  0.13956  0.52936  0.42027  1.0000
  H   H18       1.0  0.13838  0.51992  0.47912  1.0000
  C   C33       1.0  0.14139  0.58963  0.34106  1.0000
  C   C34       1.0  0.13908  0.63566  0.33857  1.0000
  C   C35       1.0  0.13964  0.62430  0.42119  1.0000
  C   C36       1.0  0.14078  0.60122  0.42358  1.0000
  C   C37       1.0  0.14057  0.58907  0.50517  1.0000
  C   C38       1.0  0.14056  0.56546  0.50495  1.0000
  H   H19       1.0  0.13996  0.59706  0.56527  1.0000
  H   H20       1.0  0.13994  0.55679  0.56490  1.0000
  H   H21       1.0  0.13841  0.63249  0.48014  1.0000
  H   H22       1.0  0.09469  0.43434  0.51436  1.0000
  C   C39       1.0  0.17234  0.45701  0.34100  1.0000
  C   C40       1.0  0.18415  0.45689  0.25879  1.0000
  H   H23       1.0  0.17606  0.45816  0.19967  1.0000
  C   C41       1.0  0.18402  0.74137  0.25997  1.0000
  H   H24       1.0  0.17584  0.73197  0.20099  1.0000
  H   H25       1.0  0.15597  0.53464  0.12786  1.0000
  H   H26       1.0  0.15542  0.65296  0.15935  1.0000
  C   C42       1.0  0.15538  0.48685  0.33892  1.0000
  H   H27       1.0  0.17403  0.50210  0.33848  1.0000
  C   C43       1.0  0.15547  0.68276  0.34024  1.0000
  H   H28       1.0  0.17413  0.68619  0.34033  1.0000
  C   C44       1.0  0.18458  0.45615  0.42175  1.0000
  C   C45       1.0  0.17446  0.45680  0.51182  1.0000
  H   H29       1.0  0.18661  0.45586  0.56484  1.0000
  H   H30       1.0  0.15492  0.44031  0.51965  1.0000
  H   H31       1.0  0.17389  0.47469  0.52022  1.0000
  C   C46       1.0  0.17231  0.72954  0.34243  1.0000
  C   C47       1.0  0.18475  0.74270  0.42296  1.0000
  C   C48       1.0  0.17560  0.73286  0.51475  1.0000
  H   H32       1.0  0.15750  0.71439  0.51545  1.0000
  H   H33       1.0  0.17252  0.74690  0.55170  1.0000
  H   H34       1.0  0.19027  0.73030  0.54958  1.0000
  C   C49       1.0  0.25503  0.45583  0.25738  1.0000
  C   C50       1.0  0.27917  0.45670  0.25995  1.0000
  H   H35       1.0  0.28858  0.45794  0.20098  1.0000
  C   C51       1.0  0.21889  0.45516  0.33936  1.0000
  C   C52       1.0  0.20737  0.45592  0.25681  1.0000
  C   C53       1.0  0.21970  0.45636  0.17538  1.0000
  C   C54       1.0  0.24328  0.45631  0.17565  1.0000
  H   H36       1.0  0.21178  0.45705  0.11522  1.0000
  H   H37       1.0  0.25197  0.45696  0.11570  1.0000
  C   C55       1.0  0.56470  0.81325  0.25734  1.0000
  C   C56       1.0  0.56383  0.83653  0.25992  1.0000
  H   H38       1.0  0.56259  0.84470  0.20095  1.0000
  C   C57       1.0  0.56537  0.77779  0.33934  1.0000
  C   C58       1.0  0.56354  0.72940  0.34098  1.0000
  C   C59       1.0  0.56367  0.74133  0.25877  1.0000
  C   C60       1.0  0.56461  0.76551  0.25678  1.0000
  C   C61       1.0  0.56417  0.77740  0.17535  1.0000
  C   C62       1.0  0.56422  0.80103  0.17562  1.0000
  H   H39       1.0  0.56349  0.76879  0.11519  1.0000
  H   H40       1.0  0.56357  0.80906  0.11566  1.0000
  H   H41       1.0  0.56238  0.73197  0.19965  1.0000
  C   C63       1.0  0.20729  0.76551  0.25738  1.0000
  C   C64       1.0  0.24276  0.80165  0.33936  1.0000
  C   C65       1.0  0.29116  0.84820  0.34098  1.0000
  C   C66       1.0  0.27923  0.83639  0.25877  1.0000
  C   C67       1.0  0.25505  0.81316  0.25680  1.0000
  C   C68       1.0  0.24316  0.80083  0.17537  1.0000
  C   C69       1.0  0.21952  0.77725  0.17565  1.0000
  H   H42       1.0  0.25178  0.80874  0.11521  1.0000
  H   H43       1.0  0.21149  0.76856  0.11570  1.0000
  H   H44       1.0  0.28859  0.84447  0.19965  1.0000
  C   C70       1.0  0.76299  0.56724  0.25734  1.0000
  C   C71       1.0  0.73885  0.56637  0.25991  1.0000
  H   H45       1.0  0.72944  0.56512  0.20093  1.0000
  C   C72       1.0  0.79913  0.56792  0.33936  1.0000
  C   C73       1.0  0.84570  0.56610  0.34102  1.0000
  C   C74       1.0  0.83389  0.56620  0.25882  1.0000
  C   C75       1.0  0.81065  0.56715  0.25681  1.0000
  C   C76       1.0  0.79832  0.56670  0.17537  1.0000
  C   C77       1.0  0.77474  0.56676  0.17563  1.0000
  H   H46       1.0  0.80624  0.56601  0.11522  1.0000
  H   H47       1.0  0.76606  0.56610  0.11567  1.0000
  H   H48       1.0  0.84196  0.56492  0.19970  1.0000
  C   C78       1.0  0.45333  0.20984  0.25734  1.0000
  C   C79       1.0  0.45420  0.18657  0.25991  1.0000
  H   H49       1.0  0.45544  0.17840  0.20093  1.0000
  C   C80       1.0  0.45265  0.24530  0.33934  1.0000
  C   C81       1.0  0.45448  0.29369  0.34099  1.0000
  C   C82       1.0  0.45436  0.28176  0.25879  1.0000
  C   C83       1.0  0.45341  0.25757  0.25679  1.0000
  C   C84       1.0  0.45385  0.24569  0.17536  1.0000
  C   C85       1.0  0.45380  0.22206  0.17562  1.0000
  H   H50       1.0  0.45454  0.25430  0.11520  1.0000
  H   H51       1.0  0.45445  0.21403  0.11566  1.0000
  H   H52       1.0  0.45563  0.29112  0.19967  1.0000
  C   C86       1.0  0.81073  0.25758  0.25739  1.0000
  C   C87       1.0  0.83400  0.28172  0.25998  1.0000
  H   H53       1.0  0.84217  0.29113  0.20101  1.0000
  C   C88       1.0  0.77526  0.22144  0.33939  1.0000
  C   C89       1.0  0.72687  0.17488  0.34101  1.0000
  C   C90       1.0  0.73879  0.18669  0.25881  1.0000
  C   C91       1.0  0.76298  0.20993  0.25683  1.0000
  C   C92       1.0  0.77486  0.22226  0.17540  1.0000
  C   C93       1.0  0.79850  0.24584  0.17567  1.0000
  H   H54       1.0  0.76625  0.21433  0.11524  1.0000
  H   H55       1.0  0.80653  0.25452  0.11572  1.0000
  H   H56       1.0  0.72944  0.17861  0.19968  1.0000
  C   C94       1.0  0.50309  0.63553  0.33745  1.0000
  C   C95       1.0  0.48994  0.62320  0.25687  1.0000
  N   N5        1.0  0.46662  0.60101  0.26266  1.0000
  C   C96       1.0  0.45468  0.58953  0.34085  1.0000
  N   N6        1.0  0.41935  0.55388  0.26301  1.0000
  C   C97       1.0  0.39712  0.53057  0.25783  1.0000
  C   C98       1.0  0.49982  0.63215  0.16497  1.0000
  H   H57       1.0  0.51843  0.65010  0.16409  1.0000
  H   H58       1.0  0.48594  0.63542  0.12785  1.0000
  H   H59       1.0  0.50214  0.61728  0.13044  1.0000
  C   C99       1.0  0.38721  0.51979  0.16759  1.0000
  H   H60       1.0  0.39939  0.53296  0.11477  1.0000
  H   H61       1.0  0.36762  0.51656  0.15931  1.0000
  H   H62       1.0  0.38684  0.50142  0.15930  1.0000
  C   C100      1.0  0.38504  0.88165  0.33741  1.0000
  C   C101      1.0  0.39736  0.88082  0.25684  1.0000
  N   N7        1.0  0.41956  0.87971  0.26264  1.0000
  C   C102      1.0  0.43104  0.87924  0.34082  1.0000
  N   N8        1.0  0.46669  0.87957  0.26299  1.0000
  C   C103      1.0  0.48999  0.88063  0.25781  1.0000
  C   C104      1.0  0.38842  0.88177  0.16494  1.0000
  H   H63       1.0  0.37046  0.88241  0.16406  1.0000
  H   H64       1.0  0.38514  0.86460  0.12783  1.0000
  H   H65       1.0  0.40328  0.89894  0.13040  1.0000
  C   C105      1.0  0.50077  0.88149  0.16757  1.0000
  H   H66       1.0  0.48759  0.88049  0.11475  1.0000
  H   H67       1.0  0.50400  0.86514  0.15931  1.0000
  H   H68       1.0  0.51914  0.89950  0.15925  1.0000
  C   C106      1.0  0.87907  0.50561  0.33745  1.0000
  C   C107      1.0  0.87827  0.49247  0.25688  1.0000
  N   N9        1.0  0.87716  0.46916  0.26267  1.0000
  C   C108      1.0  0.87669  0.45721  0.34086  1.0000
  N   N10       1.0  0.87702  0.42189  0.26303  1.0000
  C   C109      1.0  0.87810  0.39965  0.25786  1.0000
  C   C110      1.0  0.87921  0.50235  0.16498  1.0000
  H   H69       1.0  0.87984  0.52095  0.16411  1.0000
  H   H70       1.0  0.86205  0.48846  0.12787  1.0000
  H   H71       1.0  0.89640  0.50469  0.13045  1.0000
  C   C111      1.0  0.87897  0.38975  0.16761  1.0000
  H   H72       1.0  0.87797  0.40192  0.11479  1.0000
  H   H73       1.0  0.86261  0.37016  0.15934  1.0000
  H   H74       1.0  0.89697  0.38938  0.15932  1.0000
  C   C112      1.0  0.51496  0.38755  0.33744  1.0000
  C   C113      1.0  0.52809  0.39989  0.25687  1.0000
  N   N11       1.0  0.55140  0.42210  0.26264  1.0000
  C   C114      1.0  0.56334  0.43358  0.34082  1.0000
  N   N12       1.0  0.59866  0.46924  0.26297  1.0000
  C   C115      1.0  0.62090  0.49254  0.25779  1.0000
  C   C116      1.0  0.51820  0.39094  0.16498  1.0000
  H   H75       1.0  0.49961  0.37298  0.16412  1.0000
  H   H76       1.0  0.53210  0.38769  0.12783  1.0000
  H   H77       1.0  0.51586  0.40580  0.13046  1.0000
  C   C117      1.0  0.63080  0.50332  0.16754  1.0000
  H   H78       1.0  0.61862  0.49014  0.11473  1.0000
  H   H79       1.0  0.65039  0.50655  0.15926  1.0000
  H   H80       1.0  0.63117  0.52169  0.15924  1.0000
  C   C118      1.0  0.63299  0.14144  0.33741  1.0000
  C   C119      1.0  0.62067  0.14227  0.25683  1.0000
  N   N13       1.0  0.59847  0.14339  0.26262  1.0000
  C   C120      1.0  0.58700  0.14385  0.34081  1.0000
  N   N14       1.0  0.55134  0.14352  0.26296  1.0000
  C   C121      1.0  0.52803  0.14244  0.25778  1.0000
  C   C122      1.0  0.62961  0.14132  0.16494  1.0000
  H   H81       1.0  0.64757  0.14068  0.16406  1.0000
  H   H82       1.0  0.63289  0.15849  0.12782  1.0000
  H   H83       1.0  0.61475  0.12414  0.13041  1.0000
  C   C123      1.0  0.51725  0.14158  0.16754  1.0000
  H   H84       1.0  0.53043  0.14258  0.11472  1.0000
  H   H85       1.0  0.51402  0.15793  0.15928  1.0000
  H   H86       1.0  0.49888  0.12357  0.15923  1.0000
  C   C124      1.0  0.99526  0.38037  0.33855  1.0000
  C   C125      1.0  0.94058  0.35646  0.34081  1.0000
  C   C126      1.0  0.95419  0.36257  0.25844  1.0000
  C   C127      1.0  0.98150  0.37449  0.25613  1.0000
  C   C128      1.0  0.99542  0.38186  0.17459  1.0000
  H   H87       1.0  0.98585  0.37802  0.11456  1.0000
  H   H88       1.0  0.94419  0.35951  0.19951  1.0000
  C   C129      1.0  0.61861  0.64867  0.25648  1.0000
  C   C130      1.0  0.60332  0.66069  0.25902  1.0000
  H   H89       1.0  0.59639  0.66379  0.20011  1.0000
  C   C131      1.0  0.64020  0.62898  0.33870  1.0000
  C   C132      1.0  0.66416  0.59825  0.34102  1.0000
  C   C133      1.0  0.65803  0.60572  0.25862  1.0000
  C   C134      1.0  0.64607  0.62108  0.25629  1.0000
  C   C135      1.0  0.63867  0.62760  0.17474  1.0000
  C   C136      1.0  0.62509  0.64128  0.17483  1.0000
  H   H90       1.0  0.64250  0.62186  0.11472  1.0000
  H   H91       1.0  0.61936  0.64516  0.11487  1.0000
  H   H92       1.0  0.66104  0.59874  0.19970  1.0000
  C   C137      1.0  0.37189  0.98401  0.25650  1.0000
  C   C138      1.0  0.35988  0.95670  0.25907  1.0000
  H   H93       1.0  0.35677  0.94668  0.20016  1.0000
  C   C139      1.0  0.39158  0.02529  0.33869  1.0000
  C   C140      1.0  0.42232  0.07999  0.34097  1.0000
  C   C141      1.0  0.41486  0.06637  0.25860  1.0000
  C   C142      1.0  0.39949  0.03906  0.25628  1.0000
  C   C143      1.0  0.39295  0.02514  0.17474  1.0000
  C   C144      1.0  0.37927  0.99788  0.17485  1.0000
  H   H94       1.0  0.39874  0.03471  0.11472  1.0000
  H   H95       1.0  0.37543  0.98826  0.11490  1.0000
  H   H96       1.0  0.42183  0.07636  0.19967  1.0000
  C   C145      1.0  0.98148  0.62118  0.25638  1.0000
  C   C146      1.0  0.95416  0.60588  0.25893  1.0000
  H   H97       1.0  0.94415  0.59893  0.20003  1.0000
  C   C147      1.0  0.99535  0.62767  0.17472  1.0000
  H   H98       1.0  0.98573  0.62193  0.11477  1.0000
  C   C148      1.0  0.39940  0.37440  0.25640  1.0000
  C   C149      1.0  0.41470  0.36238  0.25895  1.0000
  H   H99       1.0  0.42162  0.35928  0.20005  1.0000
  C   C150      1.0  0.37783  0.39411  0.33859  1.0000
  C   C151      1.0  0.35392  0.42488  0.34083  1.0000
  C   C152      1.0  0.36004  0.41739  0.25846  1.0000
  C   C153      1.0  0.37196  0.40200  0.25616  1.0000
  C   C154      1.0  0.37933  0.39545  0.17462  1.0000
  C   C155      1.0  0.39290  0.38176  0.17473  1.0000
  H   H100      1.0  0.37549  0.40119  0.11458  1.0000
  H   H101      1.0  0.39862  0.37787  0.11478  1.0000
  H   H102      1.0  0.35698  0.42433  0.19953  1.0000
  C   C156      1.0  0.64613  0.03906  0.25648  1.0000
  C   C157      1.0  0.65816  0.06638  0.25905  1.0000
  H   H103      1.0  0.66126  0.07640  0.20014  1.0000
  C   C158      1.0  0.62644  0.99778  0.33867  1.0000
  C   C159      1.0  0.59570  0.94311  0.34094  1.0000
  C   C160      1.0  0.60318  0.95670  0.25854  1.0000
  C   C161      1.0  0.61854  0.98401  0.25625  1.0000
  C   C162      1.0  0.62507  0.99794  0.17470  1.0000
  C   C163      1.0  0.63875  0.02520  0.17482  1.0000
  H   H104      1.0  0.61933  0.98837  0.11468  1.0000
  H   H105      1.0  0.64263  0.03481  0.11487  1.0000
  H   H106      1.0  0.59620  0.94671  0.19963  1.0000
  C   C164      1.0  0.52873  0.65683  0.33830  1.0000
  C   C165      1.0  0.54973  0.65220  0.33928  1.0000
  C   C166      1.0  0.57558  0.67288  0.34051  1.0000
  C   C167      1.0  0.58028  0.69865  0.34081  1.0000
  C   C168      1.0  0.55942  0.70370  0.34020  1.0000
  C   C169      1.0  0.53372  0.68260  0.33883  1.0000
  H   H107      1.0  0.59895  0.71378  0.34188  1.0000
  H   H108      1.0  0.51846  0.68599  0.33839  1.0000
  H   H109      1.0  0.54611  0.63346  0.33912  1.0000
  C   C170      1.0  0.36373  0.88598  0.33828  1.0000
  C   C171      1.0  0.36836  0.91161  0.33927  1.0000
  C   C172      1.0  0.34766  0.91677  0.34051  1.0000
  C   C173      1.0  0.32190  0.89569  0.34083  1.0000
  C   C174      1.0  0.31686  0.86978  0.34019  1.0000
  C   C175      1.0  0.33796  0.86519  0.33881  1.0000
  H   H110      1.0  0.30677  0.89923  0.34192  1.0000
  H   H111      1.0  0.33458  0.84655  0.33836  1.0000
  H   H112      1.0  0.38709  0.92673  0.33912  1.0000
  C   C176      1.0  0.88343  0.53126  0.33835  1.0000
  C   C177      1.0  0.90907  0.55225  0.33928  1.0000
  C   C178      1.0  0.91424  0.57811  0.34051  1.0000
  C   C179      1.0  0.89318  0.58281  0.34084  1.0000
  C   C180      1.0  0.86726  0.56196  0.34026  1.0000
  C   C181      1.0  0.86265  0.53625  0.33891  1.0000
  H   H113      1.0  0.89674  0.60149  0.34188  1.0000
  H   H114      1.0  0.84400  0.52101  0.33847  1.0000
  H   H115      1.0  0.92418  0.54862  0.33908  1.0000
  C   C182      1.0  0.48931  0.36626  0.33837  1.0000
  C   C183      1.0  0.46831  0.37090  0.33932  1.0000
  C   C184      1.0  0.44246  0.35022  0.34055  1.0000
  C   C185      1.0  0.43775  0.32445  0.34086  1.0000
  C   C186      1.0  0.45861  0.31939  0.34026  1.0000
  C   C187      1.0  0.48431  0.34049  0.33890  1.0000
  H   H116      1.0  0.41908  0.30933  0.34189  1.0000
  H   H117      1.0  0.49956  0.33709  0.33845  1.0000
  H   H118      1.0  0.47194  0.38964  0.33912  1.0000
  C   C188      1.0  0.65430  0.13711  0.33829  1.0000
  C   C189      1.0  0.64967  0.11148  0.33927  1.0000
  C   C190      1.0  0.67036  0.10632  0.34050  1.0000
  C   C191      1.0  0.69612  0.12739  0.34084  1.0000
  C   C192      1.0  0.70117  0.15330  0.34021  1.0000
  C   C193      1.0  0.68007  0.15790  0.33883  1.0000
  H   H119      1.0  0.71125  0.12385  0.34190  1.0000
  H   H120      1.0  0.68345  0.17654  0.33839  1.0000
  H   H121      1.0  0.63093  0.09635  0.33909  1.0000
  C   C194      1.0  0.48932  0.13726  0.33900  1.0000
  C   C195      1.0  0.46834  0.11161  0.33930  1.0000
  C   C196      1.0  0.44247  0.10638  0.34058  1.0000
  C   C197      1.0  0.43773  0.12742  0.34142  1.0000
  C   C198      1.0  0.45856  0.15335  0.34130  1.0000
  C   C199      1.0  0.48428  0.15801  0.34016  1.0000
  H   H122      1.0  0.41904  0.12383  0.34239  1.0000
  H   H123      1.0  0.49951  0.17666  0.34021  1.0000
  H   H124      1.0  0.47200  0.09652  0.33878  1.0000
  C   C200      1.0  0.65443  0.53126  0.33899  1.0000
  C   C201      1.0  0.64976  0.55223  0.33931  1.0000
  C   C202      1.0  0.67040  0.57810  0.34059  1.0000
  C   C203      1.0  0.69618  0.58284  0.34142  1.0000
  C   C204      1.0  0.70128  0.56201  0.34128  1.0000
  C   C205      1.0  0.68022  0.53629  0.34014  1.0000
  H   H125      1.0  0.71128  0.60153  0.34240  1.0000
  H   H126      1.0  0.68364  0.52106  0.34018  1.0000
  H   H127      1.0  0.63101  0.54857  0.33880  1.0000
  C   C206      1.0  0.88328  0.36612  0.33906  1.0000
  C   C207      1.0  0.90893  0.37082  0.33930  1.0000
  C   C208      1.0  0.91418  0.35019  0.34055  1.0000
  C   C209      1.0  0.89315  0.32440  0.34140  1.0000
  C   C210      1.0  0.86722  0.31928  0.34134  1.0000
  C   C211      1.0  0.86254  0.34034  0.34026  1.0000
  H   H128      1.0  0.89675  0.30930  0.34233  1.0000
  H   H129      1.0  0.84388  0.33690  0.34036  1.0000
  H   H130      1.0  0.92402  0.38957  0.33873  1.0000
  C   C212      1.0  0.52871  0.88582  0.33900  1.0000
  C   C213      1.0  0.54968  0.91147  0.33930  1.0000
  C   C214      1.0  0.57555  0.91671  0.34056  1.0000
  C   C215      1.0  0.58030  0.89568  0.34138  1.0000
  C   C216      1.0  0.55948  0.86974  0.34128  1.0000
  C   C217      1.0  0.53375  0.86508  0.34016  1.0000
  H   H131      1.0  0.59900  0.89927  0.34236  1.0000
  H   H132      1.0  0.51852  0.84642  0.34024  1.0000
  H   H133      1.0  0.54602  0.92656  0.33878  1.0000
  C   C218      1.0  0.36359  0.49185  0.33905  1.0000
  C   C219      1.0  0.36828  0.47090  0.33930  1.0000
  C   C220      1.0  0.34765  0.44502  0.34057  1.0000
  C   C221      1.0  0.32186  0.44025  0.34141  1.0000
  C   C222      1.0  0.31674  0.46107  0.34134  1.0000
  C   C223      1.0  0.33780  0.48681  0.34024  1.0000
  H   H134      1.0  0.30677  0.42156  0.34235  1.0000
  H   H135      1.0  0.33436  0.50203  0.34033  1.0000
  H   H136      1.0  0.38704  0.47456  0.33875  1.0000
  C   C224      1.0  0.29102  0.45687  0.34242  1.0000
  C   C225      1.0  0.27785  0.45611  0.42296  1.0000
  N   N15       1.0  0.25462  0.45529  0.41750  1.0000
  C   C226      1.0  0.24267  0.45514  0.33963  1.0000
  N   N16       1.0  0.20697  0.45528  0.41703  1.0000
  C   C227      1.0  0.28768  0.45680  0.51475  1.0000
  H   H137      1.0  0.30616  0.45719  0.51545  1.0000
  H   H138      1.0  0.27365  0.43966  0.55167  1.0000
  H   H139      1.0  0.29023  0.47402  0.54963  1.0000
  C   C228      1.0  0.56368  0.84822  0.34238  1.0000
  C   C229      1.0  0.56442  0.83580  0.42292  1.0000
  N   N17       1.0  0.56524  0.81339  0.41747  1.0000
  C   C230      1.0  0.56539  0.80159  0.33959  1.0000
  N   N18       1.0  0.56526  0.76576  0.41700  1.0000
  C   C231      1.0  0.56439  0.74249  0.42172  1.0000
  C   C232      1.0  0.56374  0.84495  0.51471  1.0000
  H   H140      1.0  0.56335  0.86304  0.51540  1.0000
  H   H141      1.0  0.58088  0.84806  0.55162  1.0000
  H   H142      1.0  0.54651  0.83027  0.54960  1.0000
  C   C233      1.0  0.56374  0.73172  0.51179  1.0000
  H   H143      1.0  0.56467  0.74481  0.56481  1.0000
  H   H144      1.0  0.58023  0.72868  0.51963  1.0000
  H   H145      1.0  0.54585  0.71325  0.52018  1.0000
  N   N19       1.0  0.20716  0.76592  0.41749  1.0000
  C   C234      1.0  0.21897  0.77787  0.33962  1.0000
  N   N20       1.0  0.25480  0.81357  0.41701  1.0000
  C   C235      1.0  0.27807  0.83596  0.42173  1.0000
  C   C236      1.0  0.28884  0.84609  0.51180  1.0000
  H   H146      1.0  0.27575  0.83393  0.56482  1.0000
  H   H147      1.0  0.29189  0.86563  0.51963  1.0000
  H   H148      1.0  0.30731  0.84666  0.52019  1.0000
  C   C237      1.0  0.72700  0.56620  0.34236  1.0000
  C   C238      1.0  0.74017  0.56697  0.42292  1.0000
  N   N21       1.0  0.76340  0.56779  0.41747  1.0000
  C   C239      1.0  0.77536  0.56794  0.33960  1.0000
  N   N22       1.0  0.81105  0.56780  0.41703  1.0000
  C   C240      1.0  0.83344  0.56693  0.42176  1.0000
  C   C241      1.0  0.73033  0.56628  0.51470  1.0000
  H   H149      1.0  0.71185  0.56588  0.51539  1.0000
  H   H150      1.0  0.74436  0.58342  0.55161  1.0000
  H   H151      1.0  0.72779  0.54906  0.54959  1.0000
  C   C242      1.0  0.84356  0.56628  0.51184  1.0000
  H   H152      1.0  0.83139  0.56720  0.56485  1.0000
  H   H153      1.0  0.86309  0.58278  0.51970  1.0000
  H   H154      1.0  0.84414  0.54839  0.52022  1.0000
  C   C243      1.0  0.45437  0.17488  0.34237  1.0000
  C   C244      1.0  0.45360  0.18729  0.42291  1.0000
  N   N23       1.0  0.45278  0.20970  0.41746  1.0000
  C   C245      1.0  0.45263  0.22150  0.33959  1.0000
  N   N24       1.0  0.45276  0.25733  0.41700  1.0000
  C   C246      1.0  0.45363  0.28059  0.42174  1.0000
  C   C247      1.0  0.45429  0.17814  0.51471  1.0000
  H   H155      1.0  0.45469  0.16006  0.51540  1.0000
  H   H156      1.0  0.43715  0.17503  0.55161  1.0000
  H   H157      1.0  0.47151  0.19282  0.54959  1.0000
  C   C248      1.0  0.45427  0.29136  0.51181  1.0000
  H   H158      1.0  0.45334  0.27826  0.56483  1.0000
  H   H159      1.0  0.43778  0.29440  0.51965  1.0000
  H   H160      1.0  0.47216  0.30983  0.52022  1.0000
  C   C249      1.0  0.84570  0.29356  0.34244  1.0000
  C   C250      1.0  0.83327  0.28039  0.42298  1.0000
  N   N25       1.0  0.81086  0.25717  0.41752  1.0000
  C   C251      1.0  0.79905  0.24522  0.33964  1.0000
  N   N26       1.0  0.76322  0.20952  0.41704  1.0000
  C   C252      1.0  0.73996  0.18713  0.42176  1.0000
  C   C253      1.0  0.84243  0.29023  0.51477  1.0000
  H   H161      1.0  0.86052  0.30870  0.51546  1.0000
  H   H162      1.0  0.84552  0.27619  0.55167  1.0000
  H   H163      1.0  0.82776  0.29278  0.54966  1.0000
  C   C254      1.0  0.72918  0.17700  0.51182  1.0000
  H   H164      1.0  0.74227  0.18917  0.56485  1.0000
  H   H165      1.0  0.72614  0.15747  0.51967  1.0000
  H   H166      1.0  0.71071  0.17642  0.52020  1.0000
  C   C255      1.0  0.46697  0.60122  0.42312  1.0000
  C   C256      1.0  0.49120  0.62428  0.42025  1.0000
  H   H167      1.0  0.50066  0.63252  0.47910  1.0000
  C   C257      1.0  0.43095  0.56585  0.34104  1.0000
  C   C258      1.0  0.38489  0.51752  0.33855  1.0000
  C   C259      1.0  0.39627  0.52942  0.42116  1.0000
  C   C260      1.0  0.41936  0.55365  0.42355  1.0000
  C   C261      1.0  0.43151  0.56558  0.50514  1.0000
  C   C262      1.0  0.45512  0.58917  0.50492  1.0000
  H   H168      1.0  0.42351  0.55698  0.56524  1.0000
  H   H169      1.0  0.46378  0.59723  0.56487  1.0000
  H   H170      1.0  0.38808  0.52001  0.48011  1.0000
  C   C263      1.0  0.41935  0.87985  0.42309  1.0000
  C   C264      1.0  0.39629  0.88102  0.42023  1.0000
  H   H171      1.0  0.38803  0.88222  0.47907  1.0000
  C   C265      1.0  0.45472  0.87919  0.34102  1.0000
  C   C266      1.0  0.50306  0.88148  0.33853  1.0000
  C   C267      1.0  0.49115  0.88094  0.42114  1.0000
  C   C268      1.0  0.46692  0.87980  0.42353  1.0000
  C   C269      1.0  0.45499  0.88002  0.50512  1.0000
  C   C270      1.0  0.43139  0.88003  0.50490  1.0000
  H   H172      1.0  0.46357  0.88060  0.56522  1.0000
  H   H173      1.0  0.42332  0.88062  0.56485  1.0000
  H   H174      1.0  0.50055  0.88215  0.48010  1.0000
  C   C271      1.0  0.87729  0.46950  0.42313  1.0000
  C   C272      1.0  0.87846  0.49374  0.42027  1.0000
  H   H175      1.0  0.87965  0.50319  0.47911  1.0000
  C   C273      1.0  0.87664  0.43348  0.34106  1.0000
  C   C274      1.0  0.87893  0.38743  0.33857  1.0000
  C   C275      1.0  0.87837  0.39879  0.42119  1.0000
  C   C276      1.0  0.87724  0.42189  0.42357  1.0000
  C   C277      1.0  0.87746  0.43404  0.50516  1.0000
  C   C278      1.0  0.87748  0.45765  0.50494  1.0000
  H   H176      1.0  0.87805  0.42603  0.56526  1.0000
  H   H177      1.0  0.87807  0.46631  0.56489  1.0000
  H   H178      1.0  0.87961  0.39061  0.48014  1.0000
  C   C279      1.0  0.55105  0.42190  0.42310  1.0000
  C   C280      1.0  0.52681  0.39883  0.42025  1.0000
  H   H179      1.0  0.51738  0.39057  0.47910  1.0000
  C   C281      1.0  0.58707  0.45727  0.34100  1.0000
  C   C282      1.0  0.63313  0.50560  0.33849  1.0000
  C   C283      1.0  0.62175  0.49370  0.42111  1.0000
  C   C284      1.0  0.59866  0.46947  0.42351  1.0000
  C   C285      1.0  0.58651  0.45754  0.50511  1.0000
  C   C286      1.0  0.56291  0.43394  0.50490  1.0000
  H   H180      1.0  0.59450  0.46614  0.56520  1.0000
  H   H181      1.0  0.55424  0.42589  0.56485  1.0000
  H   H182      1.0  0.62994  0.50311  0.48006  1.0000
  C   C287      1.0  0.59868  0.14325  0.42308  1.0000
  C   C288      1.0  0.62175  0.14208  0.42023  1.0000
  H   H183      1.0  0.62999  0.14086  0.47907  1.0000
  C   C289      1.0  0.56331  0.14389  0.34100  1.0000
  C   C290      1.0  0.51497  0.14160  0.33850  1.0000
  C   C291      1.0  0.52687  0.14214  0.42112  1.0000
  C   C292      1.0  0.55111  0.14328  0.42351  1.0000
  C   C293      1.0  0.56304  0.14306  0.50510  1.0000
  C   C294      1.0  0.58663  0.14305  0.50489  1.0000
  H   H184      1.0  0.55444  0.14246  0.56520  1.0000
  H   H185      1.0  0.59469  0.14245  0.56484  1.0000
  H   H186      1.0  0.51746  0.14091  0.48007  1.0000
  N   N27       1.0  0.98153  0.37397  0.41637  1.0000
  C   C295      1.0  0.95523  0.36242  0.42140  1.0000
  C   C296      1.0  0.94335  0.35773  0.51166  1.0000
  H   H187      1.0  0.95791  0.36344  0.56447  1.0000
  H   H188      1.0  0.92933  0.33717  0.51977  1.0000
  H   H189      1.0  0.93349  0.36886  0.52020  1.0000
  C   C297      1.0  0.59580  0.66674  0.34151  1.0000
  C   C298      1.0  0.60439  0.66061  0.42205  1.0000
  N   N28       1.0  0.61908  0.64902  0.41664  1.0000
  C   C299      1.0  0.62647  0.64271  0.33877  1.0000
  N   N29       1.0  0.64660  0.62165  0.41653  1.0000
  C   C300      1.0  0.65816  0.60692  0.42157  1.0000
  C   C301      1.0  0.59761  0.66474  0.51379  1.0000
  H   H190      1.0  0.58626  0.67449  0.51440  1.0000
  H   H191      1.0  0.61533  0.67662  0.55189  1.0000
  H   H192      1.0  0.58642  0.64609  0.54747  1.0000
  C   C302      1.0  0.66285  0.59971  0.51182  1.0000
  H   H193      1.0  0.65712  0.60855  0.56464  1.0000
  H   H194      1.0  0.68342  0.60628  0.51994  1.0000
  H   H195      1.0  0.65174  0.57873  0.52032  1.0000
  C   C303      1.0  0.35379  0.94312  0.34155  1.0000
  C   C304      1.0  0.35993  0.95785  0.42207  1.0000
  N   N30       1.0  0.37154  0.98415  0.41666  1.0000
  C   C305      1.0  0.37784  0.99784  0.33879  1.0000
  N   N31       1.0  0.39890  0.03903  0.41651  1.0000
  C   C306      1.0  0.41364  0.06533  0.42153  1.0000
  C   C307      1.0  0.35583  0.94695  0.51381  1.0000
  H   H196      1.0  0.34607  0.92585  0.51443  1.0000
  H   H197      1.0  0.34397  0.95280  0.55197  1.0000
  H   H198      1.0  0.37449  0.95442  0.54741  1.0000
  C   C308      1.0  0.42084  0.07721  0.51178  1.0000
  H   H199      1.0  0.41200  0.06265  0.56460  1.0000
  H   H200      1.0  0.41429  0.09122  0.51989  1.0000
  H   H201      1.0  0.44183  0.08708  0.52029  1.0000
  C   C309      1.0  0.94061  0.59831  0.34141  1.0000
  C   C310      1.0  0.95533  0.60693  0.42197  1.0000
  N   N32       1.0  0.98161  0.62163  0.41654  1.0000
  C   C311      1.0  0.99531  0.62903  0.33867  1.0000
  C   C312      1.0  0.94443  0.60011  0.51373  1.0000
  H   H202      1.0  0.92333  0.58875  0.51437  1.0000
  H   H203      1.0  0.95026  0.61782  0.55188  1.0000
  H   H204      1.0  0.95192  0.58894  0.54732  1.0000
  C   C313      1.0  0.42225  0.35638  0.34144  1.0000
  C   C314      1.0  0.41364  0.36249  0.42200  1.0000
  N   N33       1.0  0.39895  0.37409  0.41656  1.0000
  C   C315      1.0  0.39155  0.38038  0.33868  1.0000
  N   N34       1.0  0.37143  0.40145  0.41639  1.0000
  C   C316      1.0  0.35988  0.41620  0.42143  1.0000
  C   C317      1.0  0.42044  0.35839  0.51375  1.0000
  H   H205      1.0  0.43180  0.34865  0.51440  1.0000
  H   H206      1.0  0.40273  0.34653  0.55189  1.0000
  H   H207      1.0  0.43163  0.37706  0.54735  1.0000
  C   C318      1.0  0.35519  0.42339  0.51168  1.0000
  H   H208      1.0  0.36090  0.41454  0.56449  1.0000
  H   H209      1.0  0.33463  0.41685  0.51978  1.0000
  H   H210      1.0  0.36632  0.44438  0.52022  1.0000
  C   C319      1.0  0.66423  0.07996  0.34151  1.0000
  C   C320      1.0  0.65807  0.06522  0.42202  1.0000
  N   N35       1.0  0.64646  0.03893  0.41662  1.0000
  C   C321      1.0  0.64017  0.02524  0.33875  1.0000
  N   N36       1.0  0.61911  0.98405  0.41649  1.0000
  C   C322      1.0  0.60437  0.95775  0.42153  1.0000
  C   C323      1.0  0.66218  0.07612  0.51377  1.0000
  H   H211      1.0  0.67195  0.09722  0.51440  1.0000
  H   H212      1.0  0.67404  0.07027  0.55191  1.0000
  H   H213      1.0  0.64352  0.06866  0.54740  1.0000
  C   C324      1.0  0.59717  0.94586  0.51178  1.0000
  H   H214      1.0  0.60601  0.96042  0.56460  1.0000
  H   H215      1.0  0.60373  0.93185  0.51987  1.0000
  H   H216      1.0  0.57619  0.93599  0.52030  1.0000
