data_image0
_chemical_formula_structural       CNCHCNCH3CHCH4CHCH4C2HCHC2NHNCHC2HCHC2NHNCHC3NH5C6N2H6C6N2H6C2H2CH4C2H2CH3C2H3C2H3C2H3C2H2CH3C2H3C2H2CH3C2H3C2H2CH3C2H3C3HN2H2C3HNC3NH3C3HNC3NH3C4NC3H2C4NC2NCH4C6NH2C4NC2NCH4C4NC2NCH4C4NC2NCH4C3NH5C6N2H6C6N2H6C2H2CH4C2H2CH3C2H3C2H3C2H3C2H2CH3C2H3C2H2CH3C2H3C2H2CH3C2H3C3HN2H2C3HNC3NH3C3HNC3NH3C4NC3H2C4NC2NCH4C6NH2C4NC2NCH4C4NC2NCH4C4NC2NCH4C6N2H5C6N2H6C6N2H6C2H2CH3C2H3C2H2CH3C2H3C2H2CH3C2H3C2H2CH3C2H3C2H2CH3C2H3C2H2CH3C2H3C3HNC3NH3C3HNC3NH3C3HNC3NH3C4NC2NCH4C4NC2NCH4C4NC2NCH4C4NC2NCH4C4NC2NCH4C4NC2NCH4C6N2H5C6N2H6C6N2H6C2H2CH3C2H3C2H2CH3C2H3C2H2CH3C2H3C2H2CH3C2H3C2H2CH3C2H3C2H2CH3C2H3C3HNC3NH3C3HNC3NH3C3HNC3NH3C4NC2NCH4C4NC2NCH4C4NC2NCH4C4NC2NCH4C4NC2NCH4C4NC2NCH4
_chemical_formula_sum              "C432 N96 H408"
_cell_length_a       46.0685
_cell_length_b       46.0686
_cell_length_c       14.9435
_cell_angle_alpha    90
_cell_angle_beta     90
_cell_angle_gamma    120

_space_group_name_H-M_alt    "P 1"
_space_group_IT_number       1

loop_
  _space_group_symop_operation_xyz
  'x, y, z'

loop_
  _atom_site_type_symbol
  _atom_site_label
  _atom_site_symmetry_multiplicity
  _atom_site_fract_x
  _atom_site_fract_y
  _atom_site_fract_z
  _atom_site_occupancy
  C   C1        1.0  0.02091  0.26084  0.31831  1.0000
  N   N1        1.0  0.03029  0.31333  0.25444  1.0000
  C   C2        1.0  0.03865  0.24390  0.34093  1.0000
  H   H1        1.0  0.02659  0.21844  0.34647  1.0000
  C   C3        1.0  0.02091  0.76084  0.31831  1.0000
  N   N2        1.0  0.03029  0.81334  0.25444  1.0000
  C   C4        1.0  0.03865  0.74390  0.34093  1.0000
  H   H2        1.0  0.02659  0.71844  0.34647  1.0000
  H   H3        1.0  0.01109  0.30110  0.21513  1.0000
  H   H4        1.0  0.01110  0.80110  0.21513  1.0000
  C   C5        1.0  0.04125  0.29663  0.30755  1.0000
  H   H5        1.0  0.04366  0.33725  0.24318  1.0000
  C   C6        1.0  0.05811  0.17975  0.02882  1.0000
  H   H6        1.0  0.04427  0.17779  0.08996  1.0000
  H   H7        1.0  0.05832  0.31002  0.07136  1.0000
  H   H8        1.0  0.04011  0.16585  0.64253  1.0000
  H   H9        1.0  0.04686  0.34705  0.64012  1.0000
  C   C7        1.0  0.04125  0.79663  0.30755  1.0000
  H   H10       1.0  0.04366  0.83725  0.24318  1.0000
  C   C8        1.0  0.05811  0.67975  0.02882  1.0000
  H   H11       1.0  0.04427  0.67779  0.08996  1.0000
  H   H12       1.0  0.05832  0.81002  0.07136  1.0000
  H   H13       1.0  0.04011  0.66585  0.64253  1.0000
  H   H14       1.0  0.04686  0.84705  0.64012  1.0000
  C   C9        1.0  0.07379  0.31449  0.34796  1.0000
  C   C10       1.0  0.07993  0.21699  0.00226  1.0000
  H   H15       1.0  0.07349  0.16825  0.04085  1.0000
  C   C11       1.0  0.07464  0.32279  0.01450  1.0000
  H   H16       1.0  0.07903  0.37000  0.05051  1.0000
  C   C12       1.0  0.08856  0.29586  0.38233  1.0000
  C   C13       1.0  0.07236  0.26068  0.36823  1.0000
  N   N3        1.0  0.08818  0.22824  0.50953  1.0000
  H   H17       1.0  0.06316  0.22712  0.65900  1.0000
  N   N4        1.0  0.08573  0.35775  0.49946  1.0000
  C   C14       1.0  0.07270  0.35445  0.65738  1.0000
  H   H18       1.0  0.06655  0.30540  0.62475  1.0000
  C   C15       1.0  0.07379  0.81449  0.34796  1.0000
  C   C16       1.0  0.07993  0.71698  0.00226  1.0000
  H   H19       1.0  0.07349  0.66825  0.04085  1.0000
  C   C17       1.0  0.07464  0.82279  0.01450  1.0000
  H   H20       1.0  0.07903  0.87000  0.05051  1.0000
  C   C18       1.0  0.08856  0.79586  0.38233  1.0000
  C   C19       1.0  0.07236  0.76068  0.36823  1.0000
  N   N5        1.0  0.08818  0.72824  0.50953  1.0000
  H   H21       1.0  0.06316  0.72713  0.65900  1.0000
  N   N6        1.0  0.08573  0.85775  0.49946  1.0000
  C   C20       1.0  0.07271  0.85445  0.65738  1.0000
  H   H22       1.0  0.06656  0.80540  0.62475  1.0000
  C   C21       1.0  0.48465  0.24249  0.31796  1.0000
  C   C22       1.0  0.43148  0.18876  0.34463  1.0000
  C   C23       1.0  0.46433  0.20674  0.30606  1.0000
  N   N7        1.0  0.47552  0.19017  0.25316  1.0000
  H   H23       1.0  0.99475  0.20260  0.21411  1.0000
  H   H24       1.0  0.46187  0.16641  0.24035  1.0000
  H   H25       1.0  0.51109  0.30110  0.21513  1.0000
  H   H26       1.0  0.13037  0.33395  0.43995  1.0000
  H   H27       1.0  0.37308  0.16858  0.42786  1.0000
  C   C24       1.0  0.26184  0.24272  0.31833  1.0000
  C   C25       1.0  0.31526  0.24353  0.35130  1.0000
  C   C26       1.0  0.29761  0.25801  0.30852  1.0000
  C   C27       1.0  0.24371  0.26087  0.31859  1.0000
  C   C28       1.0  0.20794  0.24563  0.30872  1.0000
  C   C29       1.0  0.19034  0.26020  0.35130  1.0000
  N   N8        1.0  0.31447  0.28541  0.25458  1.0000
  N   N9        1.0  0.19105  0.21822  0.25481  1.0000
  H   H28       1.0  0.30236  0.29222  0.21433  1.0000
  H   H29       1.0  0.33845  0.29607  0.24445  1.0000
  H   H30       1.0  0.16709  0.20776  0.24435  1.0000
  H   H31       1.0  0.20314  0.21146  0.21441  1.0000
  H   H32       1.0  0.17180  0.29615  0.45196  1.0000
  H   H33       1.0  0.33359  0.20790  0.45382  1.0000
  C   C30       1.0  0.26194  0.01994  0.31805  1.0000
  C   C31       1.0  0.26139  0.07282  0.34919  1.0000
  C   C32       1.0  0.24669  0.04045  0.30770  1.0000
  C   C33       1.0  0.24386  0.48366  0.31770  1.0000
  C   C34       1.0  0.25914  0.46320  0.30638  1.0000
  C   C35       1.0  0.24434  0.43060  0.34648  1.0000
  N   N10       1.0  0.21913  0.02976  0.25429  1.0000
  N   N11       1.0  0.28676  0.47411  0.25311  1.0000
  H   H34       1.0  0.21231  0.51074  0.21439  1.0000
  H   H35       1.0  0.20879  0.04332  0.24304  1.0000
  H   H36       1.0  0.29687  0.46042  0.24079  1.0000
  H   H37       1.0  0.29351  0.99320  0.21357  1.0000
  H   H38       1.0  0.20676  0.37333  0.43643  1.0000
  H   H39       1.0  0.29824  0.12887  0.44470  1.0000
  C   C36       1.0  0.14195  0.25406  0.27108  1.0000
  C   C37       1.0  0.11127  0.25377  0.27543  1.0000
  H   H40       1.0  0.10540  0.26436  0.22325  1.0000
  H   H41       1.0  0.15679  0.26478  0.21605  1.0000
  C   C38       1.0  0.18034  0.25213  0.01709  1.0000
  H   H42       1.0  0.13322  0.20889  0.05170  1.0000
  H   H43       1.0  0.17313  0.27066  0.03490  1.0000
  H   H44       1.0  0.19302  0.24867  0.07431  1.0000
  H   H45       1.0  0.09662  0.23116  0.05731  1.0000
  C   C39       1.0  0.25139  0.38849  0.26879  1.0000
  C   C40       1.0  0.25126  0.35791  0.27558  1.0000
  H   H46       1.0  0.24085  0.34123  0.22379  1.0000
  H   H47       1.0  0.24085  0.39231  0.21293  1.0000
  C   C41       1.0  0.25142  0.43022  0.01401  1.0000
  H   H48       1.0  0.29489  0.42694  0.04991  1.0000
  H   H49       1.0  0.23304  0.40453  0.03265  1.0000
  H   H50       1.0  0.25476  0.44662  0.07049  1.0000
  C   C42       1.0  0.28686  0.36529  0.00378  1.0000
  C   C43       1.0  0.32404  0.38078  0.03113  1.0000
  H   H51       1.0  0.27259  0.36810  0.05804  1.0000
  H   H52       1.0  0.32582  0.36917  0.09299  1.0000
  H   H53       1.0  0.33553  0.40771  0.04221  1.0000
  C   C44       1.0  0.11574  0.36345  0.26892  1.0000
  C   C45       1.0  0.14629  0.39395  0.27441  1.0000
  H   H54       1.0  0.16273  0.40003  0.22212  1.0000
  H   H55       1.0  0.11159  0.34892  0.21320  1.0000
  H   H56       1.0  0.10025  0.32962  0.03251  1.0000
  C   C46       1.0  0.14059  0.42329  0.00259  1.0000
  C   C47       1.0  0.12530  0.44515  0.02991  1.0000
  H   H57       1.0  0.13788  0.40633  0.05711  1.0000
  H   H58       1.0  0.13714  0.45871  0.09143  1.0000
  H   H59       1.0  0.09840  0.42983  0.04158  1.0000
  C   C48       1.0  0.36356  0.24984  0.26984  1.0000
  C   C49       1.0  0.39415  0.24995  0.27383  1.0000
  H   H60       1.0  0.39999  0.23953  0.22119  1.0000
  H   H61       1.0  0.34864  0.23918  0.21492  1.0000
  C   C50       1.0  0.32531  0.25173  0.01573  1.0000
  H   H62       1.0  0.37279  0.29424  0.05135  1.0000
  H   H63       1.0  0.33198  0.23276  0.03294  1.0000
  H   H64       1.0  0.31279  0.25532  0.07314  1.0000
  C   C51       1.0  0.42597  0.28616  0.00086  1.0000
  C   C52       1.0  0.44778  0.32335  0.02793  1.0000
  H   H65       1.0  0.40930  0.27187  0.05582  1.0000
  H   H66       1.0  0.46165  0.32519  0.08893  1.0000
  H   H67       1.0  0.43240  0.33482  0.04042  1.0000
  C   C53       1.0  0.25491  0.11518  0.27033  1.0000
  C   C54       1.0  0.25472  0.14561  0.27585  1.0000
  H   H68       1.0  0.26523  0.16222  0.22396  1.0000
  H   H69       1.0  0.26552  0.11122  0.21482  1.0000
  C   C55       1.0  0.25372  0.07405  0.01586  1.0000
  H   H70       1.0  0.21015  0.07732  0.05071  1.0000
  H   H71       1.0  0.27205  0.09978  0.03427  1.0000
  H   H72       1.0  0.25033  0.05776  0.07267  1.0000
  C   C56       1.0  0.21810  0.13881  0.00311  1.0000
  C   C57       1.0  0.18086  0.12326  0.02983  1.0000
  H   H73       1.0  0.23229  0.13614  0.05785  1.0000
  H   H74       1.0  0.17890  0.13495  0.09136  1.0000
  H   H75       1.0  0.16941  0.09635  0.04125  1.0000
  C   C58       1.0  0.38965  0.13925  0.26772  1.0000
  C   C59       1.0  0.35902  0.10889  0.27500  1.0000
  H   H76       1.0  0.34236  0.10247  0.22310  1.0000
  H   H77       1.0  0.39351  0.15340  0.21137  1.0000
  C   C60       1.0  0.43152  0.18224  0.01304  1.0000
  H   H78       1.0  0.42801  0.13545  0.04953  1.0000
  H   H79       1.0  0.40588  0.17510  0.03177  1.0000
  H   H80       1.0  0.44800  0.19535  0.06938  1.0000
  C   C61       1.0  0.36623  0.08191  0.00415  1.0000
  C   C62       1.0  0.38157  0.06013  0.03183  1.0000
  H   H81       1.0  0.36918  0.09914  0.05817  1.0000
  H   H82       1.0  0.36995  0.04686  0.09384  1.0000
  H   H83       1.0  0.40852  0.07548  0.04275  1.0000
  C   C63       1.0  0.46690  0.25939  0.34109  1.0000
  C   C64       1.0  0.43297  0.24257  0.36627  1.0000
  C   C65       1.0  0.41644  0.20725  0.37800  1.0000
  H   H84       1.0  0.47900  0.28483  0.34738  1.0000
  N   N12       1.0  0.38588  0.19226  0.41895  1.0000
  N   N13       1.0  0.11838  0.31052  0.42697  1.0000
  H   H85       1.0  0.12421  0.29730  0.46497  1.0000
  H   H86       1.0  0.38020  0.20515  0.45872  1.0000
  C   C66       1.0  0.24479  0.20794  0.33999  1.0000
  C   C67       1.0  0.26140  0.19113  0.36973  1.0000
  C   C68       1.0  0.29641  0.21029  0.38674  1.0000
  H   H87       1.0  0.21930  0.19445  0.34401  1.0000
  N   N14       1.0  0.31072  0.19558  0.43515  1.0000
  C   C69       1.0  0.20924  0.29337  0.38712  1.0000
  C   C70       1.0  0.24428  0.31249  0.37053  1.0000
  C   C71       1.0  0.26080  0.29562  0.34048  1.0000
  N   N15       1.0  0.19492  0.30812  0.43534  1.0000
  H   H88       1.0  0.28629  0.30907  0.34449  1.0000
  H   H89       1.0  0.20867  0.32692  0.47376  1.0000
  H   H90       1.0  0.29692  0.17637  0.47218  1.0000
  C   C72       1.0  0.29662  0.03755  0.34069  1.0000
  C   C73       1.0  0.31348  0.07096  0.37058  1.0000
  C   C74       1.0  0.29446  0.08708  0.38551  1.0000
  H   H91       1.0  0.30997  0.02542  0.34548  1.0000
  N   N16       1.0  0.30929  0.11638  0.43256  1.0000
  C   C75       1.0  0.21112  0.41604  0.38185  1.0000
  C   C76       1.0  0.19222  0.43237  0.36852  1.0000
  C   C77       1.0  0.20918  0.46601  0.34055  1.0000
  N   N17       1.0  0.19601  0.38624  0.42653  1.0000
  H   H92       1.0  0.19583  0.47813  0.34569  1.0000
  H   H93       1.0  0.17780  0.38116  0.46729  1.0000
  H   H94       1.0  0.32766  0.12137  0.47269  1.0000
  C   C78       1.0  0.09193  0.24495  0.35502  1.0000
  C   C79       1.0  0.10353  0.23411  0.42856  1.0000
  C   C80       1.0  0.13437  0.23408  0.42390  1.0000
  C   C81       1.0  0.15478  0.24535  0.34602  1.0000
  N   N18       1.0  0.14632  0.22841  0.50114  1.0000
  C   C82       1.0  0.13061  0.22180  0.58183  1.0000
  C   C83       1.0  0.09966  0.22157  0.58619  1.0000
  C   C84       1.0  0.14901  0.21839  0.65906  1.0000
  H   H95       1.0  0.15678  0.20020  0.64202  1.0000
  H   H96       1.0  0.19795  0.26174  0.62786  1.0000
  C   C85       1.0  0.25962  0.34772  0.35644  1.0000
  C   C86       1.0  0.27033  0.37058  0.42900  1.0000
  C   C87       1.0  0.27037  0.40143  0.42243  1.0000
  C   C88       1.0  0.25976  0.41037  0.34292  1.0000
  N   N19       1.0  0.27570  0.41935  0.49897  1.0000
  C   C89       1.0  0.28210  0.41065  0.58053  1.0000
  C   C90       1.0  0.28250  0.38005  0.58665  1.0000
  N   N20       1.0  0.27606  0.36154  0.51075  1.0000
  C   C91       1.0  0.28530  0.43280  0.65672  1.0000
  H   H97       1.0  0.30334  0.45871  0.63885  1.0000
  H   H98       1.0  0.24171  0.43780  0.62411  1.0000
  H   H99       1.0  0.27670  0.33833  0.66160  1.0000
  H   H100      1.0  0.33804  0.37642  0.64569  1.0000
  C   C92       1.0  0.15695  0.41275  0.35479  1.0000
  C   C93       1.0  0.13439  0.40079  0.42810  1.0000
  C   C94       1.0  0.10342  0.37005  0.42248  1.0000
  C   C95       1.0  0.09409  0.35012  0.34358  1.0000
  C   C96       1.0  0.09478  0.37304  0.58072  1.0000
  C   C97       1.0  0.12552  0.40393  0.58596  1.0000
  N   N21       1.0  0.14379  0.41573  0.50959  1.0000
  H   H101      1.0  0.16754  0.43998  0.65977  1.0000
  H   H102      1.0  0.12959  0.46340  0.64417  1.0000
  C   C98       1.0  0.41358  0.25850  0.35318  1.0000
  C   C99       1.0  0.40212  0.26931  0.42718  1.0000
  C   C100      1.0  0.37135  0.26954  0.42303  1.0000
  C   C101      1.0  0.35080  0.25828  0.34539  1.0000
  N   N22       1.0  0.35956  0.27522  0.50050  1.0000
  C   C102      1.0  0.37532  0.28167  0.58108  1.0000
  C   C103      1.0  0.40618  0.28172  0.58500  1.0000
  N   N23       1.0  0.41750  0.27501  0.50808  1.0000
  C   C104      1.0  0.35707  0.28523  0.65850  1.0000
  H   H103      1.0  0.34984  0.30386  0.64199  1.0000
  H   H104      1.0  0.30774  0.24263  0.62635  1.0000
  H   H105      1.0  0.44275  0.27607  0.65713  1.0000
  H   H106      1.0  0.46576  0.33736  0.64170  1.0000
  C   C105      1.0  0.24604  0.15587  0.35606  1.0000
  C   C106      1.0  0.23520  0.13315  0.42896  1.0000
  C   C107      1.0  0.23529  0.10235  0.42326  1.0000
  C   C108      1.0  0.24634  0.09335  0.34464  1.0000
  N   N24       1.0  0.22976  0.08455  0.50011  1.0000
  C   C109      1.0  0.22314  0.09336  0.58123  1.0000
  C   C110      1.0  0.22270  0.12394  0.58650  1.0000
  N   N25       1.0  0.22925  0.14231  0.51028  1.0000
  C   C111      1.0  0.21985  0.07136  0.65789  1.0000
  H   H107      1.0  0.20186  0.04541  0.64025  1.0000
  H   H108      1.0  0.26353  0.06638  0.62638  1.0000
  H   H109      1.0  0.22820  0.16574  0.66050  1.0000
  H   H110      1.0  0.16693  0.12750  0.64389  1.0000
  C   C112      1.0  0.34873  0.09067  0.35636  1.0000
  C   C113      1.0  0.37154  0.10310  0.42895  1.0000
  C   C114      1.0  0.40244  0.13384  0.42186  1.0000
  C   C115      1.0  0.41157  0.15308  0.34174  1.0000
  N   N26       1.0  0.42036  0.14664  0.49832  1.0000
  C   C116      1.0  0.41163  0.13178  0.58020  1.0000
  C   C117      1.0  0.38099  0.10085  0.58677  1.0000
  N   N27       1.0  0.36247  0.08858  0.51098  1.0000
  C   C118      1.0  0.43389  0.15081  0.65615  1.0000
  H   H111      1.0  0.45976  0.15852  0.63819  1.0000
  H   H112      1.0  0.43914  0.19945  0.62292  1.0000
  H   H113      1.0  0.33924  0.06520  0.66218  1.0000
  H   H114      1.0  0.37708  0.04164  0.64662  1.0000
  C   C119      1.0  0.48465  0.74249  0.31796  1.0000
  C   C120      1.0  0.43148  0.68876  0.34463  1.0000
  C   C121      1.0  0.46433  0.70674  0.30606  1.0000
  N   N28       1.0  0.47553  0.69017  0.25316  1.0000
  H   H115      1.0  0.99475  0.70260  0.21411  1.0000
  H   H116      1.0  0.46187  0.66640  0.24035  1.0000
  H   H117      1.0  0.51109  0.80110  0.21513  1.0000
  H   H118      1.0  0.13038  0.83395  0.43995  1.0000
  H   H119      1.0  0.37308  0.66857  0.42786  1.0000
  C   C122      1.0  0.26184  0.74272  0.31833  1.0000
  C   C123      1.0  0.31526  0.74353  0.35130  1.0000
  C   C124      1.0  0.29762  0.75802  0.30852  1.0000
  C   C125      1.0  0.24371  0.76087  0.31859  1.0000
  C   C126      1.0  0.20794  0.74563  0.30872  1.0000
  C   C127      1.0  0.19034  0.76020  0.35130  1.0000
  N   N29       1.0  0.31447  0.78541  0.25458  1.0000
  N   N30       1.0  0.19105  0.71822  0.25481  1.0000
  H   H120      1.0  0.30236  0.79222  0.21433  1.0000
  H   H121      1.0  0.33845  0.79607  0.24445  1.0000
  H   H122      1.0  0.16709  0.70776  0.24435  1.0000
  H   H123      1.0  0.20314  0.71146  0.21441  1.0000
  H   H124      1.0  0.17180  0.79615  0.45196  1.0000
  H   H125      1.0  0.33359  0.70790  0.45382  1.0000
  C   C128      1.0  0.26193  0.51994  0.31805  1.0000
  C   C129      1.0  0.26139  0.57282  0.34919  1.0000
  C   C130      1.0  0.24669  0.54045  0.30770  1.0000
  C   C131      1.0  0.24385  0.98366  0.31770  1.0000
  C   C132      1.0  0.25914  0.96320  0.30638  1.0000
  C   C133      1.0  0.24434  0.93060  0.34648  1.0000
  N   N31       1.0  0.21913  0.52976  0.25429  1.0000
  N   N32       1.0  0.28676  0.97411  0.25311  1.0000
  H   H126      1.0  0.21231  0.01074  0.21439  1.0000
  H   H127      1.0  0.20879  0.54331  0.24304  1.0000
  H   H128      1.0  0.29687  0.96042  0.24079  1.0000
  H   H129      1.0  0.29351  0.49321  0.21357  1.0000
  H   H130      1.0  0.20676  0.87333  0.43643  1.0000
  H   H131      1.0  0.29824  0.62887  0.44470  1.0000
  C   C134      1.0  0.14195  0.75406  0.27108  1.0000
  C   C135      1.0  0.11127  0.75377  0.27543  1.0000
  H   H132      1.0  0.10540  0.76436  0.22325  1.0000
  H   H133      1.0  0.15679  0.76478  0.21605  1.0000
  C   C136      1.0  0.18034  0.75213  0.01709  1.0000
  H   H134      1.0  0.13322  0.70889  0.05170  1.0000
  H   H135      1.0  0.17313  0.77066  0.03490  1.0000
  H   H136      1.0  0.19302  0.74867  0.07431  1.0000
  H   H137      1.0  0.09662  0.73115  0.05731  1.0000
  C   C137      1.0  0.25140  0.88849  0.26879  1.0000
  C   C138      1.0  0.25126  0.85791  0.27558  1.0000
  H   H138      1.0  0.24085  0.84123  0.22379  1.0000
  H   H139      1.0  0.24085  0.89231  0.21293  1.0000
  C   C139      1.0  0.25142  0.93021  0.01401  1.0000
  H   H140      1.0  0.29489  0.92694  0.04991  1.0000
  H   H141      1.0  0.23304  0.90453  0.03265  1.0000
  H   H142      1.0  0.25476  0.94662  0.07049  1.0000
  C   C140      1.0  0.28686  0.86529  0.00378  1.0000
  C   C141      1.0  0.32404  0.88079  0.03113  1.0000
  H   H143      1.0  0.27259  0.86810  0.05804  1.0000
  H   H144      1.0  0.32582  0.86917  0.09299  1.0000
  H   H145      1.0  0.33553  0.90772  0.04221  1.0000
  C   C142      1.0  0.11575  0.86345  0.26892  1.0000
  C   C143      1.0  0.14629  0.89396  0.27441  1.0000
  H   H146      1.0  0.16273  0.90003  0.22212  1.0000
  H   H147      1.0  0.11159  0.84892  0.21320  1.0000
  H   H148      1.0  0.10026  0.82962  0.03251  1.0000
  C   C144      1.0  0.14059  0.92329  0.00259  1.0000
  C   C145      1.0  0.12530  0.94515  0.02991  1.0000
  H   H149      1.0  0.13788  0.90633  0.05711  1.0000
  H   H150      1.0  0.13714  0.95872  0.09143  1.0000
  H   H151      1.0  0.09840  0.92983  0.04158  1.0000
  C   C146      1.0  0.36356  0.74984  0.26984  1.0000
  C   C147      1.0  0.39415  0.74995  0.27383  1.0000
  H   H152      1.0  0.39999  0.73953  0.22119  1.0000
  H   H153      1.0  0.34864  0.73917  0.21492  1.0000
  C   C148      1.0  0.32531  0.75173  0.01573  1.0000
  H   H154      1.0  0.37280  0.79424  0.05135  1.0000
  H   H155      1.0  0.33198  0.73276  0.03294  1.0000
  H   H156      1.0  0.31279  0.75532  0.07314  1.0000
  C   C149      1.0  0.42597  0.78616  0.00086  1.0000
  C   C150      1.0  0.44778  0.82335  0.02793  1.0000
  H   H157      1.0  0.40930  0.77187  0.05582  1.0000
  H   H158      1.0  0.46165  0.82518  0.08893  1.0000
  H   H159      1.0  0.43240  0.83482  0.04042  1.0000
  C   C151      1.0  0.25491  0.61518  0.27033  1.0000
  C   C152      1.0  0.25472  0.64561  0.27585  1.0000
  H   H160      1.0  0.26523  0.66222  0.22396  1.0000
  H   H161      1.0  0.26553  0.61122  0.21482  1.0000
  C   C153      1.0  0.25372  0.57405  0.01586  1.0000
  H   H162      1.0  0.21015  0.57732  0.05071  1.0000
  H   H163      1.0  0.27205  0.59978  0.03427  1.0000
  H   H164      1.0  0.25034  0.55776  0.07267  1.0000
  C   C154      1.0  0.21810  0.63881  0.00311  1.0000
  C   C155      1.0  0.18086  0.62326  0.02983  1.0000
  H   H165      1.0  0.23229  0.63614  0.05785  1.0000
  H   H166      1.0  0.17890  0.63495  0.09136  1.0000
  H   H167      1.0  0.16941  0.59635  0.04125  1.0000
  C   C156      1.0  0.38965  0.63925  0.26772  1.0000
  C   C157      1.0  0.35902  0.60889  0.27500  1.0000
  H   H168      1.0  0.34237  0.60247  0.22310  1.0000
  H   H169      1.0  0.39351  0.65340  0.21137  1.0000
  C   C158      1.0  0.43152  0.68224  0.01304  1.0000
  H   H170      1.0  0.42801  0.63545  0.04953  1.0000
  H   H171      1.0  0.40588  0.67510  0.03177  1.0000
  H   H172      1.0  0.44800  0.69535  0.06938  1.0000
  C   C159      1.0  0.36623  0.58191  0.00415  1.0000
  C   C160      1.0  0.38157  0.56013  0.03183  1.0000
  H   H173      1.0  0.36918  0.59913  0.05817  1.0000
  H   H174      1.0  0.36995  0.54685  0.09384  1.0000
  H   H175      1.0  0.40852  0.57548  0.04275  1.0000
  C   C161      1.0  0.46690  0.75939  0.34109  1.0000
  C   C162      1.0  0.43297  0.74257  0.36627  1.0000
  C   C163      1.0  0.41644  0.70725  0.37800  1.0000
  H   H176      1.0  0.47900  0.78483  0.34738  1.0000
  N   N33       1.0  0.38588  0.69226  0.41895  1.0000
  N   N34       1.0  0.11838  0.81051  0.42696  1.0000
  H   H177      1.0  0.12422  0.79729  0.46497  1.0000
  H   H178      1.0  0.38020  0.70515  0.45872  1.0000
  C   C164      1.0  0.24479  0.70794  0.33999  1.0000
  C   C165      1.0  0.26140  0.69113  0.36973  1.0000
  C   C166      1.0  0.29640  0.71029  0.38674  1.0000
  H   H179      1.0  0.21930  0.69445  0.34401  1.0000
  N   N35       1.0  0.31072  0.69558  0.43515  1.0000
  C   C167      1.0  0.20924  0.79338  0.38712  1.0000
  C   C168      1.0  0.24428  0.81249  0.37053  1.0000
  C   C169      1.0  0.26080  0.79562  0.34048  1.0000
  N   N36       1.0  0.19492  0.80812  0.43534  1.0000
  H   H180      1.0  0.28629  0.80907  0.34449  1.0000
  H   H181      1.0  0.20867  0.82692  0.47376  1.0000
  H   H182      1.0  0.29692  0.67637  0.47218  1.0000
  C   C170      1.0  0.29662  0.53755  0.34069  1.0000
  C   C171      1.0  0.31348  0.57096  0.37058  1.0000
  C   C172      1.0  0.29446  0.58708  0.38551  1.0000
  H   H183      1.0  0.30997  0.52542  0.34548  1.0000
  N   N37       1.0  0.30929  0.61638  0.43256  1.0000
  C   C173      1.0  0.21112  0.91604  0.38185  1.0000
  C   C174      1.0  0.19223  0.93237  0.36852  1.0000
  C   C175      1.0  0.20918  0.96601  0.34055  1.0000
  N   N38       1.0  0.19601  0.88624  0.42653  1.0000
  H   H184      1.0  0.19583  0.97813  0.34569  1.0000
  H   H185      1.0  0.17780  0.88115  0.46729  1.0000
  H   H186      1.0  0.32766  0.62137  0.47269  1.0000
  C   C176      1.0  0.09193  0.74495  0.35502  1.0000
  C   C177      1.0  0.10353  0.73411  0.42856  1.0000
  C   C178      1.0  0.13437  0.73408  0.42390  1.0000
  C   C179      1.0  0.15478  0.74535  0.34602  1.0000
  N   N39       1.0  0.14632  0.72841  0.50114  1.0000
  C   C180      1.0  0.13061  0.72180  0.58183  1.0000
  C   C181      1.0  0.09967  0.72157  0.58619  1.0000
  C   C182      1.0  0.14902  0.71839  0.65906  1.0000
  H   H187      1.0  0.15678  0.70020  0.64202  1.0000
  H   H188      1.0  0.19795  0.76174  0.62786  1.0000
  C   C183      1.0  0.25962  0.84772  0.35644  1.0000
  C   C184      1.0  0.27033  0.87058  0.42900  1.0000
  C   C185      1.0  0.27037  0.90143  0.42243  1.0000
  C   C186      1.0  0.25976  0.91037  0.34292  1.0000
  N   N40       1.0  0.27570  0.91935  0.49897  1.0000
  C   C187      1.0  0.28210  0.91065  0.58053  1.0000
  C   C188      1.0  0.28250  0.88005  0.58665  1.0000
  N   N41       1.0  0.27607  0.86154  0.51075  1.0000
  C   C189      1.0  0.28530  0.93280  0.65672  1.0000
  H   H189      1.0  0.30334  0.95871  0.63885  1.0000
  H   H190      1.0  0.24171  0.93780  0.62411  1.0000
  H   H191      1.0  0.27671  0.83833  0.66160  1.0000
  H   H192      1.0  0.33804  0.87641  0.64569  1.0000
  C   C190      1.0  0.15695  0.91275  0.35479  1.0000
  C   C191      1.0  0.13439  0.90079  0.42810  1.0000
  C   C192      1.0  0.10342  0.87005  0.42248  1.0000
  C   C193      1.0  0.09409  0.85012  0.34358  1.0000
  C   C194      1.0  0.09478  0.87304  0.58072  1.0000
  C   C195      1.0  0.12552  0.90393  0.58596  1.0000
  N   N42       1.0  0.14379  0.91573  0.50959  1.0000
  H   H193      1.0  0.16754  0.93998  0.65977  1.0000
  H   H194      1.0  0.12959  0.96340  0.64417  1.0000
  C   C196      1.0  0.41358  0.75850  0.35318  1.0000
  C   C197      1.0  0.40212  0.76931  0.42718  1.0000
  C   C198      1.0  0.37135  0.76953  0.42303  1.0000
  C   C199      1.0  0.35080  0.75828  0.34539  1.0000
  N   N43       1.0  0.35956  0.77523  0.50050  1.0000
  C   C200      1.0  0.37532  0.78167  0.58108  1.0000
  C   C201      1.0  0.40618  0.78172  0.58500  1.0000
  N   N44       1.0  0.41750  0.77501  0.50808  1.0000
  C   C202      1.0  0.35707  0.78523  0.65850  1.0000
  H   H195      1.0  0.34984  0.80386  0.64199  1.0000
  H   H196      1.0  0.30774  0.74263  0.62635  1.0000
  H   H197      1.0  0.44275  0.77607  0.65713  1.0000
  H   H198      1.0  0.46576  0.83736  0.64170  1.0000
  C   C203      1.0  0.24604  0.65587  0.35606  1.0000
  C   C204      1.0  0.23520  0.63315  0.42896  1.0000
  C   C205      1.0  0.23529  0.60235  0.42326  1.0000
  C   C206      1.0  0.24634  0.59335  0.34464  1.0000
  N   N45       1.0  0.22976  0.58455  0.50011  1.0000
  C   C207      1.0  0.22314  0.59336  0.58123  1.0000
  C   C208      1.0  0.22270  0.62395  0.58650  1.0000
  N   N46       1.0  0.22925  0.64231  0.51028  1.0000
  C   C209      1.0  0.21985  0.57136  0.65789  1.0000
  H   H199      1.0  0.20186  0.54541  0.64025  1.0000
  H   H200      1.0  0.26353  0.56637  0.62638  1.0000
  H   H201      1.0  0.22820  0.66574  0.66050  1.0000
  H   H202      1.0  0.16693  0.62750  0.64389  1.0000
  C   C210      1.0  0.34873  0.59067  0.35636  1.0000
  C   C211      1.0  0.37154  0.60310  0.42895  1.0000
  C   C212      1.0  0.40244  0.63384  0.42186  1.0000
  C   C213      1.0  0.41157  0.65308  0.34174  1.0000
  N   N47       1.0  0.42036  0.64664  0.49832  1.0000
  C   C214      1.0  0.41163  0.63178  0.58020  1.0000
  C   C215      1.0  0.38099  0.60085  0.58677  1.0000
  N   N48       1.0  0.36247  0.58859  0.51098  1.0000
  C   C216      1.0  0.43389  0.65081  0.65615  1.0000
  H   H203      1.0  0.45976  0.65852  0.63819  1.0000
  H   H204      1.0  0.43914  0.69944  0.62292  1.0000
  H   H205      1.0  0.33924  0.56520  0.66218  1.0000
  H   H206      1.0  0.37708  0.54164  0.64662  1.0000
  C   C217      1.0  0.98465  0.24249  0.31796  1.0000
  C   C218      1.0  0.93149  0.18876  0.34463  1.0000
  C   C219      1.0  0.96434  0.20674  0.30606  1.0000
  C   C220      1.0  0.52091  0.26084  0.31831  1.0000
  C   C221      1.0  0.54125  0.29663  0.30755  1.0000
  C   C222      1.0  0.57379  0.31449  0.34796  1.0000
  N   N49       1.0  0.97553  0.19017  0.25316  1.0000
  N   N50       1.0  0.53029  0.31333  0.25444  1.0000
  H   H207      1.0  0.49475  0.20260  0.21411  1.0000
  H   H208      1.0  0.96187  0.16641  0.24035  1.0000
  H   H209      1.0  0.54366  0.33725  0.24318  1.0000
  H   H210      1.0  0.63038  0.33395  0.43995  1.0000
  H   H211      1.0  0.87308  0.16858  0.42786  1.0000
  C   C223      1.0  0.76184  0.24272  0.31833  1.0000
  C   C224      1.0  0.81526  0.24353  0.35130  1.0000
  C   C225      1.0  0.79761  0.25801  0.30852  1.0000
  C   C226      1.0  0.74371  0.26087  0.31859  1.0000
  C   C227      1.0  0.70794  0.24563  0.30872  1.0000
  C   C228      1.0  0.69034  0.26020  0.35130  1.0000
  N   N51       1.0  0.81447  0.28541  0.25458  1.0000
  N   N52       1.0  0.69105  0.21822  0.25481  1.0000
  H   H212      1.0  0.80236  0.29222  0.21433  1.0000
  H   H213      1.0  0.83845  0.29607  0.24445  1.0000
  H   H214      1.0  0.66709  0.20776  0.24435  1.0000
  H   H215      1.0  0.70314  0.21146  0.21441  1.0000
  H   H216      1.0  0.67180  0.29615  0.45196  1.0000
  H   H217      1.0  0.83359  0.20790  0.45382  1.0000
  C   C229      1.0  0.76194  0.01994  0.31805  1.0000
  C   C230      1.0  0.76139  0.07282  0.34919  1.0000
  C   C231      1.0  0.74669  0.04045  0.30770  1.0000
  C   C232      1.0  0.74385  0.48366  0.31770  1.0000
  C   C233      1.0  0.75914  0.46320  0.30638  1.0000
  C   C234      1.0  0.74434  0.43060  0.34648  1.0000
  N   N53       1.0  0.71913  0.02976  0.25429  1.0000
  N   N54       1.0  0.78676  0.47411  0.25311  1.0000
  H   H218      1.0  0.71231  0.51074  0.21439  1.0000
  H   H219      1.0  0.70880  0.04332  0.24304  1.0000
  H   H220      1.0  0.79687  0.46042  0.24079  1.0000
  H   H221      1.0  0.79351  0.99320  0.21357  1.0000
  H   H222      1.0  0.70676  0.37333  0.43643  1.0000
  H   H223      1.0  0.79824  0.12887  0.44470  1.0000
  C   C235      1.0  0.64195  0.25406  0.27108  1.0000
  C   C236      1.0  0.61127  0.25377  0.27543  1.0000
  H   H224      1.0  0.60540  0.26436  0.22325  1.0000
  H   H225      1.0  0.65679  0.26478  0.21605  1.0000
  C   C237      1.0  0.68034  0.25213  0.01709  1.0000
  H   H226      1.0  0.63322  0.20889  0.05170  1.0000
  H   H227      1.0  0.67313  0.27066  0.03490  1.0000
  H   H228      1.0  0.69302  0.24867  0.07431  1.0000
  C   C238      1.0  0.57993  0.21699  0.00226  1.0000
  C   C239      1.0  0.55811  0.17975  0.02882  1.0000
  H   H229      1.0  0.59662  0.23116  0.05731  1.0000
  H   H230      1.0  0.54427  0.17779  0.08996  1.0000
  H   H231      1.0  0.57349  0.16825  0.04085  1.0000
  C   C240      1.0  0.75140  0.38849  0.26879  1.0000
  C   C241      1.0  0.75126  0.35791  0.27558  1.0000
  H   H232      1.0  0.74085  0.34123  0.22379  1.0000
  H   H233      1.0  0.74085  0.39231  0.21293  1.0000
  C   C242      1.0  0.75143  0.43022  0.01401  1.0000
  H   H234      1.0  0.79489  0.42694  0.04991  1.0000
  H   H235      1.0  0.73304  0.40453  0.03265  1.0000
  H   H236      1.0  0.75476  0.44662  0.07049  1.0000
  C   C243      1.0  0.78686  0.36529  0.00378  1.0000
  C   C244      1.0  0.82403  0.38078  0.03113  1.0000
  H   H237      1.0  0.77259  0.36810  0.05804  1.0000
  H   H238      1.0  0.82582  0.36917  0.09299  1.0000
  H   H239      1.0  0.83553  0.40771  0.04221  1.0000
  C   C245      1.0  0.61574  0.36345  0.26892  1.0000
  C   C246      1.0  0.64629  0.39395  0.27441  1.0000
  H   H240      1.0  0.66273  0.40003  0.22212  1.0000
  H   H241      1.0  0.61159  0.34892  0.21320  1.0000
  C   C247      1.0  0.57464  0.32279  0.01450  1.0000
  H   H242      1.0  0.57903  0.37000  0.05051  1.0000
  H   H243      1.0  0.60025  0.32962  0.03251  1.0000
  H   H244      1.0  0.55832  0.31002  0.07136  1.0000
  C   C248      1.0  0.64060  0.42329  0.00259  1.0000
  C   C249      1.0  0.62530  0.44515  0.02991  1.0000
  H   H245      1.0  0.63788  0.40633  0.05711  1.0000
  H   H246      1.0  0.63714  0.45871  0.09143  1.0000
  H   H247      1.0  0.59840  0.42983  0.04158  1.0000
  C   C250      1.0  0.86356  0.24984  0.26984  1.0000
  C   C251      1.0  0.89416  0.24995  0.27383  1.0000
  H   H248      1.0  0.89999  0.23953  0.22119  1.0000
  H   H249      1.0  0.84864  0.23918  0.21492  1.0000
  C   C252      1.0  0.82531  0.25173  0.01573  1.0000
  H   H250      1.0  0.87280  0.29424  0.05135  1.0000
  H   H251      1.0  0.83198  0.23276  0.03294  1.0000
  H   H252      1.0  0.81279  0.25532  0.07314  1.0000
  C   C253      1.0  0.92597  0.28616  0.00086  1.0000
  C   C254      1.0  0.94778  0.32335  0.02793  1.0000
  H   H253      1.0  0.90930  0.27187  0.05582  1.0000
  H   H254      1.0  0.96165  0.32519  0.08893  1.0000
  H   H255      1.0  0.93240  0.33482  0.04042  1.0000
  C   C255      1.0  0.75491  0.11518  0.27033  1.0000
  C   C256      1.0  0.75472  0.14561  0.27585  1.0000
  H   H256      1.0  0.76523  0.16222  0.22396  1.0000
  H   H257      1.0  0.76552  0.11122  0.21482  1.0000
  C   C257      1.0  0.75372  0.07405  0.01586  1.0000
  H   H258      1.0  0.71015  0.07732  0.05071  1.0000
  H   H259      1.0  0.77205  0.09978  0.03427  1.0000
  H   H260      1.0  0.75033  0.05776  0.07267  1.0000
  C   C258      1.0  0.71810  0.13881  0.00311  1.0000
  C   C259      1.0  0.68086  0.12326  0.02983  1.0000
  H   H261      1.0  0.73229  0.13614  0.05785  1.0000
  H   H262      1.0  0.67890  0.13495  0.09136  1.0000
  H   H263      1.0  0.66941  0.09635  0.04125  1.0000
  C   C260      1.0  0.88965  0.13925  0.26772  1.0000
  C   C261      1.0  0.85902  0.10889  0.27500  1.0000
  H   H264      1.0  0.84237  0.10247  0.22310  1.0000
  H   H265      1.0  0.89351  0.15340  0.21137  1.0000
  C   C262      1.0  0.93152  0.18224  0.01304  1.0000
  H   H266      1.0  0.92801  0.13545  0.04953  1.0000
  H   H267      1.0  0.90588  0.17510  0.03177  1.0000
  H   H268      1.0  0.94800  0.19535  0.06938  1.0000
  C   C263      1.0  0.86623  0.08191  0.00415  1.0000
  C   C264      1.0  0.88157  0.06013  0.03183  1.0000
  H   H269      1.0  0.86918  0.09914  0.05817  1.0000
  H   H270      1.0  0.86995  0.04686  0.09384  1.0000
  H   H271      1.0  0.90852  0.07548  0.04275  1.0000
  C   C265      1.0  0.96690  0.25939  0.34109  1.0000
  C   C266      1.0  0.93297  0.24257  0.36627  1.0000
  C   C267      1.0  0.91644  0.20725  0.37800  1.0000
  H   H272      1.0  0.97900  0.28483  0.34738  1.0000
  N   N55       1.0  0.88588  0.19226  0.41895  1.0000
  C   C268      1.0  0.58856  0.29586  0.38233  1.0000
  C   C269      1.0  0.57236  0.26068  0.36823  1.0000
  C   C270      1.0  0.53865  0.24390  0.34093  1.0000
  N   N56       1.0  0.61838  0.31052  0.42697  1.0000
  H   H273      1.0  0.52659  0.21844  0.34647  1.0000
  H   H274      1.0  0.62422  0.29730  0.46497  1.0000
  H   H275      1.0  0.88020  0.20515  0.45872  1.0000
  C   C271      1.0  0.74479  0.20794  0.33999  1.0000
  C   C272      1.0  0.76140  0.19113  0.36973  1.0000
  C   C273      1.0  0.79640  0.21029  0.38674  1.0000
  H   H276      1.0  0.71930  0.19445  0.34401  1.0000
  N   N57       1.0  0.81072  0.19558  0.43515  1.0000
  C   C274      1.0  0.70924  0.29337  0.38712  1.0000
  C   C275      1.0  0.74428  0.31249  0.37053  1.0000
  C   C276      1.0  0.76080  0.29562  0.34048  1.0000
  N   N58       1.0  0.69492  0.30812  0.43534  1.0000
  H   H277      1.0  0.78629  0.30907  0.34449  1.0000
  H   H278      1.0  0.70867  0.32692  0.47376  1.0000
  H   H279      1.0  0.79692  0.17637  0.47218  1.0000
  C   C277      1.0  0.79662  0.03755  0.34069  1.0000
  C   C278      1.0  0.81348  0.07096  0.37058  1.0000
  C   C279      1.0  0.79446  0.08708  0.38551  1.0000
  H   H280      1.0  0.80997  0.02542  0.34548  1.0000
  N   N59       1.0  0.80929  0.11638  0.43256  1.0000
  C   C280      1.0  0.71112  0.41604  0.38185  1.0000
  C   C281      1.0  0.69222  0.43237  0.36852  1.0000
  C   C282      1.0  0.70918  0.46601  0.34055  1.0000
  N   N60       1.0  0.69601  0.38624  0.42653  1.0000
  H   H281      1.0  0.69583  0.47813  0.34569  1.0000
  H   H282      1.0  0.67780  0.38116  0.46729  1.0000
  H   H283      1.0  0.82766  0.12137  0.47269  1.0000
  C   C283      1.0  0.59193  0.24495  0.35502  1.0000
  C   C284      1.0  0.60353  0.23411  0.42856  1.0000
  C   C285      1.0  0.63437  0.23408  0.42390  1.0000
  C   C286      1.0  0.65478  0.24535  0.34602  1.0000
  N   N61       1.0  0.64632  0.22841  0.50114  1.0000
  C   C287      1.0  0.63061  0.22180  0.58183  1.0000
  C   C288      1.0  0.59967  0.22157  0.58619  1.0000
  N   N62       1.0  0.58817  0.22824  0.50953  1.0000
  C   C289      1.0  0.64901  0.21839  0.65906  1.0000
  H   H284      1.0  0.65678  0.20020  0.64202  1.0000
  H   H285      1.0  0.69795  0.26174  0.62786  1.0000
  H   H286      1.0  0.56316  0.22712  0.65900  1.0000
  H   H287      1.0  0.54011  0.16585  0.64253  1.0000
  C   C290      1.0  0.75962  0.34772  0.35644  1.0000
  C   C291      1.0  0.77033  0.37058  0.42900  1.0000
  C   C292      1.0  0.77037  0.40143  0.42243  1.0000
  C   C293      1.0  0.75976  0.41037  0.34292  1.0000
  N   N63       1.0  0.77570  0.41935  0.49897  1.0000
  C   C294      1.0  0.78210  0.41065  0.58053  1.0000
  C   C295      1.0  0.78250  0.38005  0.58665  1.0000
  N   N64       1.0  0.77606  0.36154  0.51075  1.0000
  C   C296      1.0  0.78530  0.43280  0.65672  1.0000
  H   H288      1.0  0.80334  0.45871  0.63885  1.0000
  H   H289      1.0  0.74171  0.43780  0.62411  1.0000
  H   H290      1.0  0.77671  0.33833  0.66160  1.0000
  H   H291      1.0  0.83804  0.37642  0.64569  1.0000
  C   C297      1.0  0.65695  0.41275  0.35479  1.0000
  C   C298      1.0  0.63439  0.40079  0.42810  1.0000
  C   C299      1.0  0.60342  0.37005  0.42248  1.0000
  C   C300      1.0  0.59409  0.35012  0.34358  1.0000
  N   N65       1.0  0.58573  0.35775  0.49946  1.0000
  C   C301      1.0  0.59479  0.37304  0.58072  1.0000
  C   C302      1.0  0.62552  0.40393  0.58596  1.0000
  N   N66       1.0  0.64379  0.41573  0.50959  1.0000
  C   C303      1.0  0.57271  0.35445  0.65738  1.0000
  H   H292      1.0  0.54686  0.34705  0.64012  1.0000
  H   H293      1.0  0.56656  0.30540  0.62475  1.0000
  H   H294      1.0  0.66754  0.43998  0.65977  1.0000
  H   H295      1.0  0.62959  0.46340  0.64417  1.0000
  C   C304      1.0  0.91358  0.25850  0.35318  1.0000
  C   C305      1.0  0.90212  0.26931  0.42718  1.0000
  C   C306      1.0  0.87135  0.26954  0.42303  1.0000
  C   C307      1.0  0.85080  0.25828  0.34539  1.0000
  N   N67       1.0  0.85956  0.27522  0.50050  1.0000
  C   C308      1.0  0.87532  0.28167  0.58108  1.0000
  C   C309      1.0  0.90618  0.28172  0.58500  1.0000
  N   N68       1.0  0.91751  0.27501  0.50808  1.0000
  C   C310      1.0  0.85707  0.28523  0.65850  1.0000
  H   H296      1.0  0.84984  0.30386  0.64199  1.0000
  H   H297      1.0  0.80774  0.24263  0.62635  1.0000
  H   H298      1.0  0.94275  0.27607  0.65713  1.0000
  H   H299      1.0  0.96576  0.33736  0.64170  1.0000
  C   C311      1.0  0.74604  0.15587  0.35606  1.0000
  C   C312      1.0  0.73520  0.13315  0.42896  1.0000
  C   C313      1.0  0.73529  0.10235  0.42326  1.0000
  C   C314      1.0  0.74635  0.09335  0.34464  1.0000
  N   N69       1.0  0.72976  0.08455  0.50011  1.0000
  C   C315      1.0  0.72315  0.09336  0.58123  1.0000
  C   C316      1.0  0.72269  0.12394  0.58650  1.0000
  N   N70       1.0  0.72925  0.14231  0.51028  1.0000
  C   C317      1.0  0.71985  0.07136  0.65789  1.0000
  H   H300      1.0  0.70186  0.04541  0.64025  1.0000
  H   H301      1.0  0.76353  0.06638  0.62638  1.0000
  H   H302      1.0  0.72820  0.16574  0.66050  1.0000
  H   H303      1.0  0.66693  0.12750  0.64389  1.0000
  C   C318      1.0  0.84873  0.09067  0.35636  1.0000
  C   C319      1.0  0.87155  0.10310  0.42895  1.0000
  C   C320      1.0  0.90244  0.13384  0.42186  1.0000
  C   C321      1.0  0.91157  0.15308  0.34174  1.0000
  N   N71       1.0  0.92036  0.14664  0.49832  1.0000
  C   C322      1.0  0.91163  0.13178  0.58020  1.0000
  C   C323      1.0  0.88099  0.10085  0.58677  1.0000
  N   N72       1.0  0.86247  0.08858  0.51098  1.0000
  C   C324      1.0  0.93389  0.15081  0.65615  1.0000
  H   H304      1.0  0.95976  0.15852  0.63819  1.0000
  H   H305      1.0  0.93914  0.19945  0.62292  1.0000
  H   H306      1.0  0.83924  0.06520  0.66218  1.0000
  H   H307      1.0  0.87708  0.04164  0.64662  1.0000
  C   C325      1.0  0.98465  0.74249  0.31796  1.0000
  C   C326      1.0  0.93149  0.68876  0.34463  1.0000
  C   C327      1.0  0.96434  0.70674  0.30606  1.0000
  C   C328      1.0  0.52091  0.76084  0.31831  1.0000
  C   C329      1.0  0.54125  0.79663  0.30755  1.0000
  C   C330      1.0  0.57379  0.81449  0.34796  1.0000
  N   N73       1.0  0.97553  0.69017  0.25316  1.0000
  N   N74       1.0  0.53029  0.81334  0.25444  1.0000
  H   H308      1.0  0.49475  0.70260  0.21411  1.0000
  H   H309      1.0  0.96187  0.66640  0.24035  1.0000
  H   H310      1.0  0.54366  0.83725  0.24318  1.0000
  H   H311      1.0  0.63038  0.83395  0.43995  1.0000
  H   H312      1.0  0.87308  0.66857  0.42786  1.0000
  C   C331      1.0  0.76184  0.74272  0.31833  1.0000
  C   C332      1.0  0.81526  0.74353  0.35130  1.0000
  C   C333      1.0  0.79762  0.75802  0.30852  1.0000
  C   C334      1.0  0.74371  0.76087  0.31859  1.0000
  C   C335      1.0  0.70794  0.74563  0.30872  1.0000
  C   C336      1.0  0.69034  0.76020  0.35130  1.0000
  N   N75       1.0  0.81447  0.78541  0.25458  1.0000
  N   N76       1.0  0.69105  0.71822  0.25481  1.0000
  H   H313      1.0  0.80236  0.79222  0.21433  1.0000
  H   H314      1.0  0.83845  0.79607  0.24445  1.0000
  H   H315      1.0  0.66709  0.70776  0.24435  1.0000
  H   H316      1.0  0.70315  0.71146  0.21441  1.0000
  H   H317      1.0  0.67180  0.79615  0.45196  1.0000
  H   H318      1.0  0.83359  0.70790  0.45382  1.0000
  C   C337      1.0  0.76194  0.51994  0.31805  1.0000
  C   C338      1.0  0.76139  0.57282  0.34919  1.0000
  C   C339      1.0  0.74669  0.54045  0.30770  1.0000
  C   C340      1.0  0.74385  0.98366  0.31770  1.0000
  C   C341      1.0  0.75914  0.96320  0.30638  1.0000
  C   C342      1.0  0.74434  0.93060  0.34648  1.0000
  N   N77       1.0  0.71913  0.52976  0.25429  1.0000
  N   N78       1.0  0.78676  0.97411  0.25311  1.0000
  H   H319      1.0  0.71231  0.01074  0.21439  1.0000
  H   H320      1.0  0.70879  0.54331  0.24304  1.0000
  H   H321      1.0  0.79687  0.96042  0.24079  1.0000
  H   H322      1.0  0.79351  0.49321  0.21357  1.0000
  H   H323      1.0  0.70676  0.87333  0.43643  1.0000
  H   H324      1.0  0.79824  0.62887  0.44470  1.0000
  C   C343      1.0  0.64195  0.75406  0.27108  1.0000
  C   C344      1.0  0.61127  0.75377  0.27543  1.0000
  H   H325      1.0  0.60540  0.76436  0.22325  1.0000
  H   H326      1.0  0.65679  0.76478  0.21605  1.0000
  C   C345      1.0  0.68034  0.75213  0.01709  1.0000
  H   H327      1.0  0.63322  0.70889  0.05170  1.0000
  H   H328      1.0  0.67313  0.77066  0.03490  1.0000
  H   H329      1.0  0.69302  0.74867  0.07431  1.0000
  C   C346      1.0  0.57993  0.71698  0.00226  1.0000
  C   C347      1.0  0.55811  0.67975  0.02882  1.0000
  H   H330      1.0  0.59662  0.73115  0.05731  1.0000
  H   H331      1.0  0.54427  0.67779  0.08996  1.0000
  H   H332      1.0  0.57349  0.66825  0.04085  1.0000
  C   C348      1.0  0.75140  0.88849  0.26879  1.0000
  C   C349      1.0  0.75126  0.85791  0.27558  1.0000
  H   H333      1.0  0.74085  0.84123  0.22379  1.0000
  H   H334      1.0  0.74085  0.89231  0.21293  1.0000
  C   C350      1.0  0.75142  0.93021  0.01401  1.0000
  H   H335      1.0  0.79489  0.92694  0.04991  1.0000
  H   H336      1.0  0.73304  0.90453  0.03265  1.0000
  H   H337      1.0  0.75476  0.94662  0.07049  1.0000
  C   C351      1.0  0.78686  0.86529  0.00378  1.0000
  C   C352      1.0  0.82404  0.88079  0.03113  1.0000
  H   H338      1.0  0.77259  0.86810  0.05804  1.0000
  H   H339      1.0  0.82583  0.86917  0.09299  1.0000
  H   H340      1.0  0.83553  0.90772  0.04221  1.0000
  C   C353      1.0  0.61574  0.86345  0.26892  1.0000
  C   C354      1.0  0.64629  0.89396  0.27441  1.0000
  H   H341      1.0  0.66273  0.90003  0.22212  1.0000
  H   H342      1.0  0.61159  0.84892  0.21320  1.0000
  C   C355      1.0  0.57464  0.82279  0.01450  1.0000
  H   H343      1.0  0.57903  0.87000  0.05051  1.0000
  H   H344      1.0  0.60025  0.82962  0.03251  1.0000
  H   H345      1.0  0.55832  0.81002  0.07136  1.0000
  C   C356      1.0  0.64060  0.92329  0.00259  1.0000
  C   C357      1.0  0.62530  0.94515  0.02991  1.0000
  H   H346      1.0  0.63788  0.90633  0.05711  1.0000
  H   H347      1.0  0.63714  0.95872  0.09143  1.0000
  H   H348      1.0  0.59840  0.92983  0.04158  1.0000
  C   C358      1.0  0.86356  0.74984  0.26984  1.0000
  C   C359      1.0  0.89415  0.74995  0.27383  1.0000
  H   H349      1.0  0.89999  0.73953  0.22119  1.0000
  H   H350      1.0  0.84864  0.73917  0.21492  1.0000
  C   C360      1.0  0.82531  0.75173  0.01573  1.0000
  H   H351      1.0  0.87280  0.79424  0.05135  1.0000
  H   H352      1.0  0.83198  0.73276  0.03294  1.0000
  H   H353      1.0  0.81279  0.75532  0.07314  1.0000
  C   C361      1.0  0.92597  0.78616  0.00086  1.0000
  C   C362      1.0  0.94778  0.82335  0.02793  1.0000
  H   H354      1.0  0.90930  0.77187  0.05582  1.0000
  H   H355      1.0  0.96165  0.82518  0.08893  1.0000
  H   H356      1.0  0.93240  0.83482  0.04042  1.0000
  C   C363      1.0  0.75491  0.61518  0.27033  1.0000
  C   C364      1.0  0.75472  0.64561  0.27585  1.0000
  H   H357      1.0  0.76523  0.66222  0.22396  1.0000
  H   H358      1.0  0.76553  0.61122  0.21482  1.0000
  C   C365      1.0  0.75372  0.57405  0.01586  1.0000
  H   H359      1.0  0.71015  0.57732  0.05071  1.0000
  H   H360      1.0  0.77205  0.59978  0.03427  1.0000
  H   H361      1.0  0.75033  0.55776  0.07267  1.0000
  C   C366      1.0  0.71810  0.63881  0.00311  1.0000
  C   C367      1.0  0.68086  0.62326  0.02983  1.0000
  H   H362      1.0  0.73229  0.63614  0.05785  1.0000
  H   H363      1.0  0.67890  0.63495  0.09136  1.0000
  H   H364      1.0  0.66941  0.59635  0.04125  1.0000
  C   C368      1.0  0.88965  0.63925  0.26772  1.0000
  C   C369      1.0  0.85902  0.60889  0.27500  1.0000
  H   H365      1.0  0.84236  0.60247  0.22310  1.0000
  H   H366      1.0  0.89351  0.65340  0.21137  1.0000
  C   C370      1.0  0.93152  0.68224  0.01304  1.0000
  H   H367      1.0  0.92801  0.63545  0.04953  1.0000
  H   H368      1.0  0.90588  0.67510  0.03177  1.0000
  H   H369      1.0  0.94800  0.69535  0.06938  1.0000
  C   C371      1.0  0.86623  0.58191  0.00415  1.0000
  C   C372      1.0  0.88157  0.56013  0.03183  1.0000
  H   H370      1.0  0.86918  0.59913  0.05817  1.0000
  H   H371      1.0  0.86995  0.54685  0.09384  1.0000
  H   H372      1.0  0.90852  0.57548  0.04275  1.0000
  C   C373      1.0  0.96690  0.75939  0.34109  1.0000
  C   C374      1.0  0.93297  0.74257  0.36627  1.0000
  C   C375      1.0  0.91644  0.70725  0.37800  1.0000
  H   H373      1.0  0.97900  0.78483  0.34738  1.0000
  N   N79       1.0  0.88588  0.69226  0.41895  1.0000
  C   C376      1.0  0.58856  0.79586  0.38233  1.0000
  C   C377      1.0  0.57236  0.76068  0.36823  1.0000
  C   C378      1.0  0.53865  0.74390  0.34093  1.0000
  N   N80       1.0  0.61838  0.81051  0.42696  1.0000
  H   H374      1.0  0.52659  0.71844  0.34647  1.0000
  H   H375      1.0  0.62421  0.79729  0.46497  1.0000
  H   H376      1.0  0.88021  0.70515  0.45872  1.0000
  C   C379      1.0  0.74479  0.70794  0.33999  1.0000
  C   C380      1.0  0.76140  0.69113  0.36973  1.0000
  C   C381      1.0  0.79641  0.71029  0.38674  1.0000
  H   H377      1.0  0.71930  0.69445  0.34401  1.0000
  N   N81       1.0  0.81072  0.69558  0.43515  1.0000
  C   C382      1.0  0.70924  0.79338  0.38712  1.0000
  C   C383      1.0  0.74428  0.81249  0.37053  1.0000
  C   C384      1.0  0.76080  0.79562  0.34048  1.0000
  N   N82       1.0  0.69492  0.80812  0.43534  1.0000
  H   H378      1.0  0.78629  0.80907  0.34449  1.0000
  H   H379      1.0  0.70867  0.82692  0.47376  1.0000
  H   H380      1.0  0.79692  0.67637  0.47218  1.0000
  C   C385      1.0  0.79662  0.53755  0.34069  1.0000
  C   C386      1.0  0.81348  0.57096  0.37058  1.0000
  C   C387      1.0  0.79446  0.58708  0.38551  1.0000
  H   H381      1.0  0.80997  0.52542  0.34548  1.0000
  N   N83       1.0  0.80929  0.61638  0.43256  1.0000
  C   C388      1.0  0.71112  0.91604  0.38185  1.0000
  C   C389      1.0  0.69222  0.93237  0.36852  1.0000
  C   C390      1.0  0.70918  0.96601  0.34055  1.0000
  N   N84       1.0  0.69601  0.88624  0.42653  1.0000
  H   H382      1.0  0.69583  0.97813  0.34569  1.0000
  H   H383      1.0  0.67780  0.88115  0.46729  1.0000
  H   H384      1.0  0.82766  0.62137  0.47269  1.0000
  C   C391      1.0  0.59193  0.74495  0.35502  1.0000
  C   C392      1.0  0.60353  0.73411  0.42856  1.0000
  C   C393      1.0  0.63437  0.73408  0.42390  1.0000
  C   C394      1.0  0.65478  0.74535  0.34602  1.0000
  N   N85       1.0  0.64632  0.72841  0.50114  1.0000
  C   C395      1.0  0.63061  0.72180  0.58183  1.0000
  C   C396      1.0  0.59967  0.72157  0.58619  1.0000
  N   N86       1.0  0.58818  0.72824  0.50953  1.0000
  C   C397      1.0  0.64902  0.71839  0.65906  1.0000
  H   H385      1.0  0.65678  0.70020  0.64202  1.0000
  H   H386      1.0  0.69795  0.76174  0.62786  1.0000
  H   H387      1.0  0.56316  0.72713  0.65900  1.0000
  H   H388      1.0  0.54011  0.66585  0.64253  1.0000
  C   C398      1.0  0.75962  0.84772  0.35644  1.0000
  C   C399      1.0  0.77033  0.87058  0.42900  1.0000
  C   C400      1.0  0.77037  0.90143  0.42243  1.0000
  C   C401      1.0  0.75976  0.91037  0.34292  1.0000
  N   N87       1.0  0.77570  0.91935  0.49897  1.0000
  C   C402      1.0  0.78210  0.91065  0.58053  1.0000
  C   C403      1.0  0.78250  0.88005  0.58665  1.0000
  N   N88       1.0  0.77606  0.86154  0.51075  1.0000
  C   C404      1.0  0.78530  0.93280  0.65672  1.0000
  H   H389      1.0  0.80334  0.95871  0.63885  1.0000
  H   H390      1.0  0.74172  0.93780  0.62411  1.0000
  H   H391      1.0  0.77670  0.83833  0.66160  1.0000
  H   H392      1.0  0.83804  0.87641  0.64569  1.0000
  C   C405      1.0  0.65695  0.91275  0.35479  1.0000
  C   C406      1.0  0.63439  0.90079  0.42810  1.0000
  C   C407      1.0  0.60342  0.87005  0.42248  1.0000
  C   C408      1.0  0.59409  0.85012  0.34358  1.0000
  N   N89       1.0  0.58573  0.85775  0.49946  1.0000
  C   C409      1.0  0.59478  0.87304  0.58072  1.0000
  C   C410      1.0  0.62552  0.90393  0.58596  1.0000
  N   N90       1.0  0.64379  0.91573  0.50959  1.0000
  C   C411      1.0  0.57271  0.85445  0.65738  1.0000
  H   H393      1.0  0.54686  0.84705  0.64012  1.0000
  H   H394      1.0  0.56656  0.80540  0.62475  1.0000
  H   H395      1.0  0.66754  0.93998  0.65977  1.0000
  H   H396      1.0  0.62959  0.96340  0.64417  1.0000
  C   C412      1.0  0.91358  0.75850  0.35318  1.0000
  C   C413      1.0  0.90212  0.76931  0.42718  1.0000
  C   C414      1.0  0.87135  0.76953  0.42303  1.0000
  C   C415      1.0  0.85080  0.75828  0.34539  1.0000
  N   N91       1.0  0.85956  0.77523  0.50050  1.0000
  C   C416      1.0  0.87532  0.78167  0.58108  1.0000
  C   C417      1.0  0.90618  0.78172  0.58500  1.0000
  N   N92       1.0  0.91750  0.77501  0.50808  1.0000
  C   C418      1.0  0.85707  0.78523  0.65850  1.0000
  H   H397      1.0  0.84984  0.80386  0.64199  1.0000
  H   H398      1.0  0.80774  0.74263  0.62635  1.0000
  H   H399      1.0  0.94275  0.77607  0.65713  1.0000
  H   H400      1.0  0.96576  0.83736  0.64170  1.0000
  C   C419      1.0  0.74604  0.65587  0.35606  1.0000
  C   C420      1.0  0.73520  0.63315  0.42896  1.0000
  C   C421      1.0  0.73529  0.60235  0.42326  1.0000
  C   C422      1.0  0.74634  0.59335  0.34464  1.0000
  N   N93       1.0  0.72976  0.58455  0.50011  1.0000
  C   C423      1.0  0.72314  0.59336  0.58123  1.0000
  C   C424      1.0  0.72269  0.62395  0.58650  1.0000
  N   N94       1.0  0.72925  0.64231  0.51028  1.0000
  C   C425      1.0  0.71985  0.57136  0.65789  1.0000
  H   H401      1.0  0.70186  0.54541  0.64025  1.0000
  H   H402      1.0  0.76353  0.56637  0.62638  1.0000
  H   H403      1.0  0.72820  0.66574  0.66050  1.0000
  H   H404      1.0  0.66693  0.62750  0.64389  1.0000
  C   C426      1.0  0.84873  0.59067  0.35636  1.0000
  C   C427      1.0  0.87155  0.60310  0.42895  1.0000
  C   C428      1.0  0.90244  0.63384  0.42186  1.0000
  C   C429      1.0  0.91157  0.65308  0.34174  1.0000
  N   N95       1.0  0.92036  0.64664  0.49832  1.0000
  C   C430      1.0  0.91163  0.63178  0.58020  1.0000
  C   C431      1.0  0.88099  0.60085  0.58677  1.0000
  N   N96       1.0  0.86247  0.58859  0.51098  1.0000
  C   C432      1.0  0.93389  0.65081  0.65615  1.0000
  H   H405      1.0  0.95976  0.65852  0.63819  1.0000
  H   H406      1.0  0.93914  0.69944  0.62292  1.0000
  H   H407      1.0  0.83924  0.56520  0.66218  1.0000
  H   H408      1.0  0.87708  0.54164  0.64662  1.0000
