data_image0
_chemical_formula_structural       C7H5C2NC2H3CH3CH3C2NCNOHC18H11CNCOHC3H3CH3CH3C7H5C2NC2H3CH3CH3C2NCNOHC18H11CNCOHC3H3CH3CH3C7H5C2NC2H3CH3CH3C2NCNOHC18H11CNCOHC3H3CH3CH3C7H5C2NC2H3CH3CH3C2NCNOHC18H11CNCOHC3H3CH3CH3C7H5C2NC2H3CH3CH3C2NCNOHC18H11CNCOHC3H3CH3CH3C7H5C2NC2H3CH3CH3C2NCNOHC18H11CNCOHC3H3CH3CH3C7H5C2NC2H3CH3CH3C2NCNOHC18H11CNCOHC3H3CH3CH3C7H5C2NC2H3CH3CH3C2NCNOHC18H11CNCOHC3H3CH3CH3C7H5C2NC2H3CH3CH3C2NCNOHC18H11CNCOHC3H3CH3CH3
_chemical_formula_sum              "C369 H324 N36 O18"
_cell_length_a       36.2642
_cell_length_b       36.2647
_cell_length_c       15.0862
_cell_angle_alpha    90
_cell_angle_beta     90
_cell_angle_gamma    90.0701

_space_group_name_H-M_alt    "P 1"
_space_group_IT_number       1

loop_
  _space_group_symop_operation_xyz
  'x, y, z'

loop_
  _atom_site_type_symbol
  _atom_site_label
  _atom_site_symmetry_multiplicity
  _atom_site_fract_x
  _atom_site_fract_y
  _atom_site_fract_z
  _atom_site_occupancy
  C   C1        1.0  0.07368  0.03128  0.03045  1.0000
  C   C2        1.0  0.09475  0.33287  0.04694  1.0000
  C   C3        1.0  0.07919  0.29775  0.03209  1.0000
  C   C4        1.0  0.28599  0.30105  0.01820  1.0000
  C   C5        1.0  0.25956  0.30674  0.08509  1.0000
  C   C6        1.0  0.24567  0.00917  0.10140  1.0000
  C   C7        1.0  0.26370  0.03944  0.06133  1.0000
  H   H1        1.0  0.08422  0.05699  0.04287  1.0000
  H   H2        1.0  0.09399  0.27431  0.04464  1.0000
  H   H3        1.0  0.29384  0.27459  0.00461  1.0000
  H   H4        1.0  0.24609  0.28417  0.10990  1.0000
  H   H5        1.0  0.25294  0.06541  0.06799  1.0000
  C   C8        1.0  0.98572  0.17258  0.28121  1.0000
  C   C9        1.0  0.98313  0.18976  0.36645  1.0000
  N   N1        1.0  0.32078  0.13492  0.28064  1.0000
  C   C10       1.0  0.98430  0.19184  0.19174  1.0000
  C   C11       1.0  0.98935  0.16414  0.11224  1.0000
  H   H6        1.0  0.01602  0.15024  0.11639  1.0000
  H   H7        1.0  0.98809  0.17828  0.04840  1.0000
  H   H8        1.0  0.30108  0.14309  0.11229  1.0000
  C   C12       1.0  0.01541  0.22153  0.18172  1.0000
  H   H9        1.0  0.04217  0.21004  0.20009  1.0000
  H   H10       1.0  0.01018  0.24570  0.22258  1.0000
  H   H11       1.0  0.01730  0.23144  0.11355  1.0000
  C   C13       1.0  0.27899  0.21022  0.18009  1.0000
  H   H12       1.0  0.25696  0.18999  0.18939  1.0000
  H   H13       1.0  0.27611  0.22184  0.11375  1.0000
  H   H14       1.0  0.27482  0.23250  0.22757  1.0000
  C   C14       1.0  0.13270  0.00345  0.06238  1.0000
  C   C15       1.0  0.14663  0.99725  0.14929  1.0000
  N   N2        1.0  0.18344  0.00015  0.16626  1.0000
  C   C16       1.0  0.20694  0.01107  0.10140  1.0000
  N   N3        1.0  0.19312  0.01562  0.01912  1.0000
  O   O1        1.0  0.12398  0.98740  0.21680  1.0000
  H   H15       1.0  0.19293  0.99448  0.22507  1.0000
  C   C17       1.0  0.31706  0.22795  0.38495  1.0000
  C   C18       1.0  0.28538  0.24432  0.42254  1.0000
  C   C19       1.0  0.28872  0.27449  0.48053  1.0000
  C   C20       1.0  0.32366  0.28934  0.50384  1.0000
  C   C21       1.0  0.02140  0.27469  0.45853  1.0000
  C   C22       1.0  0.01849  0.24373  0.40331  1.0000
  C   C23       1.0  0.32730  0.99105  0.55877  1.0000
  C   C24       1.0  0.32627  0.01899  0.48337  1.0000
  C   C25       1.0  0.02537  0.03233  0.44141  1.0000
  C   C26       1.0  0.02380  0.06031  0.37718  1.0000
  C   C27       1.0  0.32276  0.07495  0.35135  1.0000
  C   C28       1.0  0.29023  0.05690  0.37899  1.0000
  C   C29       1.0  0.29223  0.02949  0.44450  1.0000
  C   C30       1.0  0.29828  0.99713  0.63025  1.0000
  C   C31       1.0  0.02813  0.32668  0.61710  1.0000
  C   C32       1.0  0.04128  0.02813  0.64729  1.0000
  C   C33       1.0  0.04554  0.29491  0.65294  1.0000
  C   C34       1.0  0.28806  0.03325  0.65732  1.0000
  H   H16       1.0  0.02901  0.05204  0.62730  1.0000
  H   H17       1.0  0.03583  0.26913  0.63884  1.0000
  H   H18       1.0  0.29717  0.05583  0.62329  1.0000
  H   H19       1.0  0.26809  0.01953  0.46940  1.0000
  H   H20       1.0  0.26492  0.06816  0.36579  1.0000
  H   H21       1.0  0.04774  0.07377  0.36107  1.0000
  H   H22       1.0  0.05078  0.02423  0.46267  1.0000
  H   H23       1.0  0.04710  0.28536  0.46881  1.0000
  H   H24       1.0  0.26513  0.28496  0.50745  1.0000
  H   H25       1.0  0.26009  0.23210  0.41534  1.0000
  H   H26       1.0  0.04220  0.23148  0.38116  1.0000
  C   C35       1.0  0.98332  0.16694  0.44286  1.0000
  N   N4        1.0  0.31863  0.13003  0.43511  1.0000
  C   C36       1.0  0.32067  0.11362  0.35429  1.0000
  O   O2        1.0  0.98231  0.18074  0.52653  1.0000
  H   H27       1.0  0.31886  0.11525  0.48927  1.0000
  C   C37       1.0  0.15780  0.01261  0.65915  1.0000
  C   C38       1.0  0.15220  0.01764  0.55915  1.0000
  C   C39       1.0  0.18991  0.01714  0.50688  1.0000
  H   H28       1.0  0.20761  0.03997  0.52766  1.0000
  H   H29       1.0  0.18594  0.01979  0.43533  1.0000
  H   H30       1.0  0.20464  0.32468  0.51881  1.0000
  C   C40       1.0  0.13434  0.05589  0.53778  1.0000
  H   H31       1.0  0.14890  0.07802  0.57233  1.0000
  H   H32       1.0  0.10553  0.05700  0.55646  1.0000
  H   H33       1.0  0.13526  0.06179  0.46679  1.0000
  C   C41       1.0  0.12891  0.31905  0.51749  1.0000
  H   H34       1.0  0.13906  0.29221  0.53946  1.0000
  H   H35       1.0  0.12973  0.31964  0.44510  1.0000
  H   H36       1.0  0.10013  0.32141  0.53546  1.0000
  C   C42       1.0  0.07368  0.36461  0.03045  1.0000
  C   C43       1.0  0.09475  0.66621  0.04694  1.0000
  C   C44       1.0  0.07919  0.63109  0.03209  1.0000
  C   C45       1.0  0.28599  0.63438  0.01820  1.0000
  C   C46       1.0  0.25956  0.64007  0.08509  1.0000
  C   C47       1.0  0.24567  0.34251  0.10140  1.0000
  C   C48       1.0  0.26370  0.37278  0.06133  1.0000
  H   H37       1.0  0.08422  0.39032  0.04287  1.0000
  H   H38       1.0  0.09399  0.60764  0.04464  1.0000
  H   H39       1.0  0.29384  0.60793  0.00461  1.0000
  H   H40       1.0  0.24609  0.61751  0.10990  1.0000
  H   H41       1.0  0.25294  0.39874  0.06799  1.0000
  C   C49       1.0  0.98572  0.50591  0.28121  1.0000
  C   C50       1.0  0.98313  0.52310  0.36645  1.0000
  N   N5        1.0  0.32078  0.46825  0.28064  1.0000
  C   C51       1.0  0.98430  0.52517  0.19174  1.0000
  C   C52       1.0  0.98935  0.49747  0.11224  1.0000
  H   H42       1.0  0.01602  0.48358  0.11639  1.0000
  H   H43       1.0  0.98809  0.51162  0.04840  1.0000
  H   H44       1.0  0.30108  0.47642  0.11229  1.0000
  C   C53       1.0  0.01541  0.55487  0.18172  1.0000
  H   H45       1.0  0.04217  0.54337  0.20009  1.0000
  H   H46       1.0  0.01018  0.57903  0.22258  1.0000
  H   H47       1.0  0.01730  0.56478  0.11355  1.0000
  C   C54       1.0  0.27899  0.54356  0.18009  1.0000
  H   H48       1.0  0.25696  0.52333  0.18939  1.0000
  H   H49       1.0  0.27610  0.55518  0.11375  1.0000
  H   H50       1.0  0.27482  0.56583  0.22757  1.0000
  C   C55       1.0  0.13270  0.33678  0.06238  1.0000
  C   C56       1.0  0.14663  0.33059  0.14929  1.0000
  N   N6        1.0  0.18344  0.33348  0.16626  1.0000
  C   C57       1.0  0.20694  0.34441  0.10140  1.0000
  N   N7        1.0  0.19312  0.34896  0.01912  1.0000
  O   O3        1.0  0.12398  0.32074  0.21680  1.0000
  H   H51       1.0  0.19293  0.32781  0.22507  1.0000
  C   C58       1.0  0.31706  0.56128  0.38495  1.0000
  C   C59       1.0  0.28538  0.57766  0.42254  1.0000
  C   C60       1.0  0.28872  0.60782  0.48053  1.0000
  C   C61       1.0  0.32366  0.62267  0.50384  1.0000
  C   C62       1.0  0.02140  0.60803  0.45853  1.0000
  C   C63       1.0  0.01849  0.57707  0.40331  1.0000
  C   C64       1.0  0.32730  0.32439  0.55877  1.0000
  C   C65       1.0  0.32627  0.35233  0.48337  1.0000
  C   C66       1.0  0.02537  0.36566  0.44141  1.0000
  C   C67       1.0  0.02380  0.39364  0.37718  1.0000
  C   C68       1.0  0.32276  0.40829  0.35135  1.0000
  C   C69       1.0  0.29023  0.39023  0.37899  1.0000
  C   C70       1.0  0.29223  0.36282  0.44450  1.0000
  C   C71       1.0  0.29828  0.33046  0.63025  1.0000
  C   C72       1.0  0.02813  0.66001  0.61710  1.0000
  C   C73       1.0  0.04128  0.36146  0.64729  1.0000
  C   C74       1.0  0.04554  0.62824  0.65294  1.0000
  C   C75       1.0  0.28806  0.36658  0.65732  1.0000
  H   H52       1.0  0.02901  0.38537  0.62730  1.0000
  H   H53       1.0  0.03583  0.60246  0.63884  1.0000
  H   H54       1.0  0.29718  0.38916  0.62329  1.0000
  H   H55       1.0  0.26809  0.35286  0.46940  1.0000
  H   H56       1.0  0.26492  0.40149  0.36579  1.0000
  H   H57       1.0  0.04774  0.40710  0.36107  1.0000
  H   H58       1.0  0.05078  0.35756  0.46267  1.0000
  H   H59       1.0  0.04710  0.61870  0.46881  1.0000
  H   H60       1.0  0.26513  0.61830  0.50745  1.0000
  H   H61       1.0  0.26009  0.56544  0.41534  1.0000
  H   H62       1.0  0.04220  0.56482  0.38116  1.0000
  C   C76       1.0  0.98332  0.50027  0.44286  1.0000
  N   N8        1.0  0.31863  0.46336  0.43511  1.0000
  C   C77       1.0  0.32067  0.44696  0.35429  1.0000
  O   O4        1.0  0.98231  0.51408  0.52653  1.0000
  H   H63       1.0  0.31886  0.44858  0.48927  1.0000
  C   C78       1.0  0.15780  0.34594  0.65915  1.0000
  C   C79       1.0  0.15220  0.35097  0.55915  1.0000
  C   C80       1.0  0.18991  0.35048  0.50688  1.0000
  H   H64       1.0  0.20761  0.37331  0.52766  1.0000
  H   H65       1.0  0.18594  0.35313  0.43533  1.0000
  H   H66       1.0  0.20464  0.65801  0.51881  1.0000
  C   C81       1.0  0.13434  0.38922  0.53778  1.0000
  H   H67       1.0  0.14890  0.41135  0.57233  1.0000
  H   H68       1.0  0.10553  0.39034  0.55646  1.0000
  H   H69       1.0  0.13526  0.39512  0.46679  1.0000
  C   C82       1.0  0.12891  0.65238  0.51749  1.0000
  H   H70       1.0  0.13906  0.62554  0.53946  1.0000
  H   H71       1.0  0.12973  0.65298  0.44510  1.0000
  H   H72       1.0  0.10013  0.65475  0.53546  1.0000
  C   C83       1.0  0.07368  0.69794  0.03045  1.0000
  C   C84       1.0  0.09475  0.99954  0.04694  1.0000
  C   C85       1.0  0.07919  0.96442  0.03209  1.0000
  C   C86       1.0  0.28599  0.96771  0.01820  1.0000
  C   C87       1.0  0.25956  0.97341  0.08509  1.0000
  C   C88       1.0  0.24567  0.67584  0.10140  1.0000
  C   C89       1.0  0.26370  0.70611  0.06133  1.0000
  H   H73       1.0  0.08422  0.72365  0.04287  1.0000
  H   H74       1.0  0.09399  0.94098  0.04464  1.0000
  H   H75       1.0  0.29383  0.94126  0.00461  1.0000
  H   H76       1.0  0.24609  0.95084  0.10990  1.0000
  H   H77       1.0  0.25294  0.73207  0.06799  1.0000
  C   C90       1.0  0.98572  0.83925  0.28121  1.0000
  C   C91       1.0  0.98313  0.85643  0.36645  1.0000
  N   N9        1.0  0.32078  0.80158  0.28064  1.0000
  C   C92       1.0  0.98430  0.85850  0.19174  1.0000
  C   C93       1.0  0.98935  0.83080  0.11224  1.0000
  H   H78       1.0  0.01602  0.81691  0.11639  1.0000
  H   H79       1.0  0.98809  0.84495  0.04840  1.0000
  H   H80       1.0  0.30108  0.80975  0.11229  1.0000
  C   C94       1.0  0.01541  0.88820  0.18172  1.0000
  H   H81       1.0  0.04217  0.87670  0.20009  1.0000
  H   H82       1.0  0.01018  0.91236  0.22258  1.0000
  H   H83       1.0  0.01730  0.89811  0.11355  1.0000
  C   C95       1.0  0.27899  0.87689  0.18009  1.0000
  H   H84       1.0  0.25696  0.85666  0.18939  1.0000
  H   H85       1.0  0.27610  0.88851  0.11375  1.0000
  H   H86       1.0  0.27482  0.89917  0.22757  1.0000
  C   C96       1.0  0.13270  0.67011  0.06238  1.0000
  C   C97       1.0  0.14663  0.66392  0.14929  1.0000
  N   N10       1.0  0.18344  0.66682  0.16626  1.0000
  C   C98       1.0  0.20694  0.67774  0.10140  1.0000
  N   N11       1.0  0.19312  0.68229  0.01912  1.0000
  O   O5        1.0  0.12398  0.65407  0.21680  1.0000
  H   H87       1.0  0.19293  0.66114  0.22507  1.0000
  C   C99       1.0  0.31706  0.89462  0.38495  1.0000
  C   C100      1.0  0.28538  0.91099  0.42254  1.0000
  C   C101      1.0  0.28872  0.94116  0.48053  1.0000
  C   C102      1.0  0.32366  0.95601  0.50384  1.0000
  C   C103      1.0  0.02140  0.94136  0.45853  1.0000
  C   C104      1.0  0.01849  0.91040  0.40331  1.0000
  C   C105      1.0  0.32730  0.65772  0.55877  1.0000
  C   C106      1.0  0.32627  0.68566  0.48337  1.0000
  C   C107      1.0  0.02537  0.69900  0.44141  1.0000
  C   C108      1.0  0.02380  0.72698  0.37718  1.0000
  C   C109      1.0  0.32276  0.74162  0.35135  1.0000
  C   C110      1.0  0.29023  0.72357  0.37899  1.0000
  C   C111      1.0  0.29223  0.69616  0.44450  1.0000
  C   C112      1.0  0.29828  0.66380  0.63025  1.0000
  C   C113      1.0  0.02813  0.99335  0.61710  1.0000
  C   C114      1.0  0.04128  0.69479  0.64729  1.0000
  C   C115      1.0  0.04554  0.96157  0.65294  1.0000
  C   C116      1.0  0.28806  0.69991  0.65732  1.0000
  H   H88       1.0  0.02901  0.71871  0.62730  1.0000
  H   H89       1.0  0.03583  0.93580  0.63884  1.0000
  H   H90       1.0  0.29718  0.72250  0.62329  1.0000
  H   H91       1.0  0.26809  0.68620  0.46940  1.0000
  H   H92       1.0  0.26492  0.73482  0.36579  1.0000
  H   H93       1.0  0.04774  0.74044  0.36107  1.0000
  H   H94       1.0  0.05078  0.69089  0.46267  1.0000
  H   H95       1.0  0.04710  0.95203  0.46881  1.0000
  H   H96       1.0  0.26513  0.95163  0.50745  1.0000
  H   H97       1.0  0.26009  0.89877  0.41534  1.0000
  H   H98       1.0  0.04220  0.89815  0.38116  1.0000
  C   C117      1.0  0.98332  0.83361  0.44286  1.0000
  N   N12       1.0  0.31863  0.79669  0.43511  1.0000
  C   C118      1.0  0.32067  0.78029  0.35429  1.0000
  O   O6        1.0  0.98231  0.84741  0.52653  1.0000
  H   H99       1.0  0.31886  0.78192  0.48927  1.0000
  C   C119      1.0  0.15780  0.67927  0.65915  1.0000
  C   C120      1.0  0.15220  0.68431  0.55915  1.0000
  C   C121      1.0  0.18991  0.68381  0.50688  1.0000
  H   H100      1.0  0.20761  0.70664  0.52766  1.0000
  H   H101      1.0  0.18594  0.68646  0.43533  1.0000
  H   H102      1.0  0.20464  0.99134  0.51881  1.0000
  C   C122      1.0  0.13434  0.72255  0.53778  1.0000
  H   H103      1.0  0.14890  0.74469  0.57233  1.0000
  H   H104      1.0  0.10553  0.72367  0.55646  1.0000
  H   H105      1.0  0.13526  0.72845  0.46679  1.0000
  C   C123      1.0  0.12891  0.98572  0.51749  1.0000
  H   H106      1.0  0.13906  0.95888  0.53946  1.0000
  H   H107      1.0  0.12973  0.98631  0.44510  1.0000
  H   H108      1.0  0.10013  0.98808  0.53546  1.0000
  C   C124      1.0  0.40701  0.03128  0.03045  1.0000
  C   C125      1.0  0.42808  0.33287  0.04694  1.0000
  C   C126      1.0  0.41252  0.29775  0.03209  1.0000
  C   C127      1.0  0.61932  0.30105  0.01820  1.0000
  C   C128      1.0  0.59289  0.30674  0.08509  1.0000
  C   C129      1.0  0.57900  0.00917  0.10140  1.0000
  C   C130      1.0  0.59704  0.03944  0.06133  1.0000
  H   H109      1.0  0.41755  0.05699  0.04287  1.0000
  H   H110      1.0  0.42732  0.27431  0.04464  1.0000
  H   H111      1.0  0.62717  0.27459  0.00461  1.0000
  H   H112      1.0  0.57942  0.28417  0.10990  1.0000
  H   H113      1.0  0.58627  0.06541  0.06799  1.0000
  C   C131      1.0  0.31905  0.17258  0.28121  1.0000
  C   C132      1.0  0.31646  0.18976  0.36645  1.0000
  N   N13       1.0  0.65411  0.13492  0.28064  1.0000
  C   C133      1.0  0.31763  0.19184  0.19174  1.0000
  C   C134      1.0  0.32268  0.16414  0.11224  1.0000
  H   H114      1.0  0.34935  0.15024  0.11639  1.0000
  H   H115      1.0  0.32142  0.17828  0.04840  1.0000
  H   H116      1.0  0.63441  0.14309  0.11229  1.0000
  C   C135      1.0  0.34875  0.22153  0.18172  1.0000
  H   H117      1.0  0.37550  0.21004  0.20009  1.0000
  H   H118      1.0  0.34352  0.24570  0.22258  1.0000
  H   H119      1.0  0.35063  0.23144  0.11355  1.0000
  C   C136      1.0  0.61232  0.21022  0.18009  1.0000
  H   H120      1.0  0.59029  0.18999  0.18939  1.0000
  H   H121      1.0  0.60944  0.22184  0.11375  1.0000
  H   H122      1.0  0.60815  0.23250  0.22757  1.0000
  C   C137      1.0  0.46603  0.00345  0.06238  1.0000
  C   C138      1.0  0.47996  0.99725  0.14929  1.0000
  N   N14       1.0  0.51677  0.00015  0.16626  1.0000
  C   C139      1.0  0.54028  0.01107  0.10140  1.0000
  N   N15       1.0  0.52645  0.01562  0.01912  1.0000
  O   O7        1.0  0.45731  0.98740  0.21680  1.0000
  H   H123      1.0  0.52626  0.99448  0.22507  1.0000
  C   C140      1.0  0.65040  0.22795  0.38495  1.0000
  C   C141      1.0  0.61872  0.24432  0.42254  1.0000
  C   C142      1.0  0.62205  0.27449  0.48053  1.0000
  C   C143      1.0  0.65699  0.28934  0.50384  1.0000
  C   C144      1.0  0.35473  0.27469  0.45853  1.0000
  C   C145      1.0  0.35182  0.24373  0.40331  1.0000
  C   C146      1.0  0.66064  0.99105  0.55877  1.0000
  C   C147      1.0  0.65960  0.01899  0.48337  1.0000
  C   C148      1.0  0.35870  0.03233  0.44141  1.0000
  C   C149      1.0  0.35713  0.06031  0.37718  1.0000
  C   C150      1.0  0.65609  0.07495  0.35135  1.0000
  C   C151      1.0  0.62356  0.05690  0.37899  1.0000
  C   C152      1.0  0.62556  0.02949  0.44450  1.0000
  C   C153      1.0  0.63161  0.99713  0.63025  1.0000
  C   C154      1.0  0.36146  0.32668  0.61710  1.0000
  C   C155      1.0  0.37461  0.02813  0.64729  1.0000
  C   C156      1.0  0.37887  0.29491  0.65294  1.0000
  C   C157      1.0  0.62140  0.03325  0.65732  1.0000
  H   H124      1.0  0.36234  0.05204  0.62730  1.0000
  H   H125      1.0  0.36917  0.26913  0.63884  1.0000
  H   H126      1.0  0.63051  0.05583  0.62329  1.0000
  H   H127      1.0  0.60142  0.01953  0.46940  1.0000
  H   H128      1.0  0.59825  0.06816  0.36579  1.0000
  H   H129      1.0  0.38107  0.07377  0.36107  1.0000
  H   H130      1.0  0.38412  0.02423  0.46267  1.0000
  H   H131      1.0  0.38043  0.28536  0.46881  1.0000
  H   H132      1.0  0.59846  0.28496  0.50745  1.0000
  H   H133      1.0  0.59343  0.23210  0.41534  1.0000
  H   H134      1.0  0.37554  0.23148  0.38116  1.0000
  C   C158      1.0  0.31666  0.16694  0.44286  1.0000
  N   N16       1.0  0.65196  0.13003  0.43511  1.0000
  C   C159      1.0  0.65401  0.11362  0.35429  1.0000
  O   O8        1.0  0.31565  0.18074  0.52653  1.0000
  H   H135      1.0  0.65219  0.11525  0.48927  1.0000
  C   C160      1.0  0.49113  0.01261  0.65915  1.0000
  C   C161      1.0  0.48554  0.01764  0.55915  1.0000
  C   C162      1.0  0.52324  0.01714  0.50688  1.0000
  H   H136      1.0  0.54095  0.03997  0.52766  1.0000
  H   H137      1.0  0.51927  0.01979  0.43533  1.0000
  H   H138      1.0  0.53797  0.32468  0.51881  1.0000
  C   C163      1.0  0.46767  0.05589  0.53778  1.0000
  H   H139      1.0  0.48223  0.07802  0.57233  1.0000
  H   H140      1.0  0.43886  0.05700  0.55646  1.0000
  H   H141      1.0  0.46859  0.06179  0.46679  1.0000
  C   C164      1.0  0.46224  0.31905  0.51749  1.0000
  H   H142      1.0  0.47239  0.29221  0.53946  1.0000
  H   H143      1.0  0.46306  0.31964  0.44510  1.0000
  H   H144      1.0  0.43347  0.32141  0.53546  1.0000
  C   C165      1.0  0.40701  0.36461  0.03045  1.0000
  C   C166      1.0  0.42808  0.66621  0.04694  1.0000
  C   C167      1.0  0.41252  0.63109  0.03209  1.0000
  C   C168      1.0  0.61932  0.63438  0.01820  1.0000
  C   C169      1.0  0.59289  0.64007  0.08509  1.0000
  C   C170      1.0  0.57900  0.34251  0.10140  1.0000
  C   C171      1.0  0.59704  0.37278  0.06133  1.0000
  H   H145      1.0  0.41755  0.39032  0.04287  1.0000
  H   H146      1.0  0.42732  0.60764  0.04464  1.0000
  H   H147      1.0  0.62717  0.60793  0.00461  1.0000
  H   H148      1.0  0.57942  0.61751  0.10990  1.0000
  H   H149      1.0  0.58627  0.39874  0.06799  1.0000
  C   C172      1.0  0.31905  0.50591  0.28121  1.0000
  C   C173      1.0  0.31646  0.52310  0.36645  1.0000
  N   N17       1.0  0.65411  0.46825  0.28064  1.0000
  C   C174      1.0  0.31764  0.52517  0.19174  1.0000
  C   C175      1.0  0.32268  0.49747  0.11224  1.0000
  H   H150      1.0  0.34935  0.48358  0.11639  1.0000
  H   H151      1.0  0.32142  0.51162  0.04840  1.0000
  H   H152      1.0  0.63441  0.47642  0.11229  1.0000
  C   C176      1.0  0.34874  0.55487  0.18172  1.0000
  H   H153      1.0  0.37550  0.54337  0.20009  1.0000
  H   H154      1.0  0.34352  0.57903  0.22258  1.0000
  H   H155      1.0  0.35063  0.56478  0.11355  1.0000
  C   C177      1.0  0.61232  0.54356  0.18009  1.0000
  H   H156      1.0  0.59029  0.52333  0.18939  1.0000
  H   H157      1.0  0.60944  0.55518  0.11375  1.0000
  H   H158      1.0  0.60815  0.56583  0.22757  1.0000
  C   C178      1.0  0.46603  0.33678  0.06238  1.0000
  C   C179      1.0  0.47996  0.33059  0.14929  1.0000
  N   N18       1.0  0.51677  0.33348  0.16626  1.0000
  C   C180      1.0  0.54028  0.34441  0.10140  1.0000
  N   N19       1.0  0.52645  0.34896  0.01912  1.0000
  O   O9        1.0  0.45731  0.32074  0.21680  1.0000
  H   H159      1.0  0.52626  0.32781  0.22507  1.0000
  C   C181      1.0  0.65040  0.56128  0.38495  1.0000
  C   C182      1.0  0.61872  0.57766  0.42254  1.0000
  C   C183      1.0  0.62205  0.60782  0.48053  1.0000
  C   C184      1.0  0.65699  0.62267  0.50384  1.0000
  C   C185      1.0  0.35473  0.60803  0.45853  1.0000
  C   C186      1.0  0.35182  0.57707  0.40331  1.0000
  C   C187      1.0  0.66064  0.32439  0.55877  1.0000
  C   C188      1.0  0.65960  0.35233  0.48337  1.0000
  C   C189      1.0  0.35871  0.36566  0.44141  1.0000
  C   C190      1.0  0.35713  0.39364  0.37718  1.0000
  C   C191      1.0  0.65609  0.40829  0.35135  1.0000
  C   C192      1.0  0.62357  0.39023  0.37899  1.0000
  C   C193      1.0  0.62556  0.36282  0.44450  1.0000
  C   C194      1.0  0.63161  0.33046  0.63025  1.0000
  C   C195      1.0  0.36146  0.66001  0.61710  1.0000
  C   C196      1.0  0.37461  0.36146  0.64729  1.0000
  C   C197      1.0  0.37887  0.62824  0.65294  1.0000
  C   C198      1.0  0.62140  0.36658  0.65732  1.0000
  H   H160      1.0  0.36234  0.38537  0.62730  1.0000
  H   H161      1.0  0.36917  0.60246  0.63884  1.0000
  H   H162      1.0  0.63051  0.38916  0.62329  1.0000
  H   H163      1.0  0.60142  0.35286  0.46940  1.0000
  H   H164      1.0  0.59825  0.40149  0.36579  1.0000
  H   H165      1.0  0.38108  0.40710  0.36107  1.0000
  H   H166      1.0  0.38412  0.35756  0.46267  1.0000
  H   H167      1.0  0.38043  0.61870  0.46881  1.0000
  H   H168      1.0  0.59846  0.61830  0.50745  1.0000
  H   H169      1.0  0.59343  0.56544  0.41534  1.0000
  H   H170      1.0  0.37554  0.56482  0.38116  1.0000
  C   C199      1.0  0.31666  0.50027  0.44286  1.0000
  N   N20       1.0  0.65196  0.46336  0.43511  1.0000
  C   C200      1.0  0.65401  0.44696  0.35429  1.0000
  O   O10       1.0  0.31565  0.51408  0.52653  1.0000
  H   H171      1.0  0.65219  0.44858  0.48927  1.0000
  C   C201      1.0  0.49113  0.34594  0.65915  1.0000
  C   C202      1.0  0.48554  0.35097  0.55915  1.0000
  C   C203      1.0  0.52324  0.35048  0.50688  1.0000
  H   H172      1.0  0.54095  0.37331  0.52766  1.0000
  H   H173      1.0  0.51927  0.35313  0.43533  1.0000
  H   H174      1.0  0.53797  0.65801  0.51881  1.0000
  C   C204      1.0  0.46767  0.38922  0.53778  1.0000
  H   H175      1.0  0.48223  0.41135  0.57233  1.0000
  H   H176      1.0  0.43886  0.39034  0.55646  1.0000
  H   H177      1.0  0.46859  0.39512  0.46679  1.0000
  C   C205      1.0  0.46224  0.65238  0.51749  1.0000
  H   H178      1.0  0.47239  0.62554  0.53946  1.0000
  H   H179      1.0  0.46306  0.65298  0.44510  1.0000
  H   H180      1.0  0.43347  0.65475  0.53546  1.0000
  C   C206      1.0  0.40701  0.69794  0.03045  1.0000
  C   C207      1.0  0.42808  0.99954  0.04694  1.0000
  C   C208      1.0  0.41252  0.96442  0.03209  1.0000
  C   C209      1.0  0.61932  0.96771  0.01820  1.0000
  C   C210      1.0  0.59289  0.97341  0.08509  1.0000
  C   C211      1.0  0.57900  0.67584  0.10140  1.0000
  C   C212      1.0  0.59704  0.70611  0.06133  1.0000
  H   H181      1.0  0.41755  0.72365  0.04287  1.0000
  H   H182      1.0  0.42732  0.94098  0.04464  1.0000
  H   H183      1.0  0.62717  0.94126  0.00461  1.0000
  H   H184      1.0  0.57942  0.95084  0.10990  1.0000
  H   H185      1.0  0.58627  0.73207  0.06799  1.0000
  C   C213      1.0  0.31905  0.83925  0.28121  1.0000
  C   C214      1.0  0.31646  0.85643  0.36645  1.0000
  N   N21       1.0  0.65411  0.80158  0.28064  1.0000
  C   C215      1.0  0.31764  0.85850  0.19174  1.0000
  C   C216      1.0  0.32268  0.83080  0.11224  1.0000
  H   H186      1.0  0.34935  0.81691  0.11639  1.0000
  H   H187      1.0  0.32142  0.84495  0.04840  1.0000
  H   H188      1.0  0.63441  0.80975  0.11229  1.0000
  C   C217      1.0  0.34874  0.88820  0.18172  1.0000
  H   H189      1.0  0.37550  0.87670  0.20009  1.0000
  H   H190      1.0  0.34352  0.91236  0.22258  1.0000
  H   H191      1.0  0.35063  0.89811  0.11355  1.0000
  C   C218      1.0  0.61232  0.87689  0.18009  1.0000
  H   H192      1.0  0.59030  0.85666  0.18939  1.0000
  H   H193      1.0  0.60944  0.88851  0.11375  1.0000
  H   H194      1.0  0.60815  0.89917  0.22757  1.0000
  C   C219      1.0  0.46603  0.67011  0.06238  1.0000
  C   C220      1.0  0.47996  0.66392  0.14929  1.0000
  N   N22       1.0  0.51677  0.66682  0.16626  1.0000
  C   C221      1.0  0.54028  0.67774  0.10140  1.0000
  N   N23       1.0  0.52645  0.68229  0.01912  1.0000
  O   O11       1.0  0.45731  0.65407  0.21680  1.0000
  H   H195      1.0  0.52626  0.66114  0.22507  1.0000
  C   C222      1.0  0.65040  0.89462  0.38495  1.0000
  C   C223      1.0  0.61872  0.91099  0.42254  1.0000
  C   C224      1.0  0.62205  0.94116  0.48053  1.0000
  C   C225      1.0  0.65699  0.95601  0.50384  1.0000
  C   C226      1.0  0.35473  0.94136  0.45853  1.0000
  C   C227      1.0  0.35182  0.91040  0.40331  1.0000
  C   C228      1.0  0.66064  0.65772  0.55877  1.0000
  C   C229      1.0  0.65960  0.68566  0.48337  1.0000
  C   C230      1.0  0.35870  0.69900  0.44141  1.0000
  C   C231      1.0  0.35713  0.72698  0.37718  1.0000
  C   C232      1.0  0.65609  0.74162  0.35135  1.0000
  C   C233      1.0  0.62357  0.72357  0.37899  1.0000
  C   C234      1.0  0.62556  0.69616  0.44450  1.0000
  C   C235      1.0  0.63161  0.66380  0.63025  1.0000
  C   C236      1.0  0.36146  0.99335  0.61710  1.0000
  C   C237      1.0  0.37462  0.69479  0.64729  1.0000
  C   C238      1.0  0.37887  0.96157  0.65294  1.0000
  C   C239      1.0  0.62140  0.69991  0.65732  1.0000
  H   H196      1.0  0.36234  0.71871  0.62730  1.0000
  H   H197      1.0  0.36917  0.93580  0.63884  1.0000
  H   H198      1.0  0.63051  0.72250  0.62329  1.0000
  H   H199      1.0  0.60142  0.68620  0.46940  1.0000
  H   H200      1.0  0.59825  0.73482  0.36579  1.0000
  H   H201      1.0  0.38108  0.74044  0.36107  1.0000
  H   H202      1.0  0.38412  0.69089  0.46267  1.0000
  H   H203      1.0  0.38043  0.95203  0.46881  1.0000
  H   H204      1.0  0.59846  0.95163  0.50745  1.0000
  H   H205      1.0  0.59342  0.89877  0.41534  1.0000
  H   H206      1.0  0.37554  0.89815  0.38116  1.0000
  C   C240      1.0  0.31666  0.83361  0.44286  1.0000
  N   N24       1.0  0.65196  0.79669  0.43511  1.0000
  C   C241      1.0  0.65401  0.78029  0.35429  1.0000
  O   O12       1.0  0.31565  0.84741  0.52653  1.0000
  H   H207      1.0  0.65219  0.78192  0.48927  1.0000
  C   C242      1.0  0.49113  0.67927  0.65915  1.0000
  C   C243      1.0  0.48554  0.68431  0.55915  1.0000
  C   C244      1.0  0.52324  0.68381  0.50688  1.0000
  H   H208      1.0  0.54095  0.70664  0.52766  1.0000
  H   H209      1.0  0.51927  0.68646  0.43533  1.0000
  H   H210      1.0  0.53797  0.99134  0.51881  1.0000
  C   C245      1.0  0.46767  0.72255  0.53778  1.0000
  H   H211      1.0  0.48224  0.74469  0.57233  1.0000
  H   H212      1.0  0.43886  0.72367  0.55646  1.0000
  H   H213      1.0  0.46859  0.72845  0.46679  1.0000
  C   C246      1.0  0.46225  0.98572  0.51749  1.0000
  H   H214      1.0  0.47239  0.95888  0.53946  1.0000
  H   H215      1.0  0.46306  0.98631  0.44510  1.0000
  H   H216      1.0  0.43347  0.98808  0.53546  1.0000
  C   C247      1.0  0.74035  0.03128  0.03045  1.0000
  C   C248      1.0  0.76141  0.33287  0.04694  1.0000
  C   C249      1.0  0.74586  0.29775  0.03209  1.0000
  C   C250      1.0  0.95266  0.30105  0.01820  1.0000
  C   C251      1.0  0.92623  0.30674  0.08509  1.0000
  C   C252      1.0  0.91233  0.00917  0.10140  1.0000
  C   C253      1.0  0.93037  0.03944  0.06133  1.0000
  H   H217      1.0  0.75089  0.05699  0.04287  1.0000
  H   H218      1.0  0.76065  0.27431  0.04464  1.0000
  H   H219      1.0  0.96050  0.27459  0.00461  1.0000
  H   H220      1.0  0.91276  0.28417  0.10990  1.0000
  H   H221      1.0  0.91961  0.06541  0.06799  1.0000
  C   C254      1.0  0.65238  0.17258  0.28121  1.0000
  C   C255      1.0  0.64979  0.18976  0.36645  1.0000
  N   N25       1.0  0.98745  0.13492  0.28064  1.0000
  C   C256      1.0  0.65097  0.19184  0.19174  1.0000
  C   C257      1.0  0.65601  0.16414  0.11224  1.0000
  H   H222      1.0  0.68268  0.15024  0.11639  1.0000
  H   H223      1.0  0.65475  0.17828  0.04840  1.0000
  H   H224      1.0  0.96774  0.14309  0.11229  1.0000
  C   C258      1.0  0.68208  0.22153  0.18172  1.0000
  H   H225      1.0  0.70883  0.21004  0.20009  1.0000
  H   H226      1.0  0.67685  0.24570  0.22258  1.0000
  H   H227      1.0  0.68396  0.23144  0.11355  1.0000
  C   C259      1.0  0.94565  0.21022  0.18009  1.0000
  H   H228      1.0  0.92363  0.18999  0.18939  1.0000
  H   H229      1.0  0.94277  0.22184  0.11375  1.0000
  H   H230      1.0  0.94148  0.23250  0.22757  1.0000
  C   C260      1.0  0.79936  0.00345  0.06238  1.0000
  C   C261      1.0  0.81329  0.99725  0.14929  1.0000
  N   N26       1.0  0.85010  0.00015  0.16626  1.0000
  C   C262      1.0  0.87361  0.01107  0.10140  1.0000
  N   N27       1.0  0.85979  0.01562  0.01912  1.0000
  O   O13       1.0  0.79064  0.98740  0.21680  1.0000
  H   H231      1.0  0.85960  0.99448  0.22507  1.0000
  C   C263      1.0  0.98373  0.22795  0.38495  1.0000
  C   C264      1.0  0.95205  0.24432  0.42254  1.0000
  C   C265      1.0  0.95539  0.27449  0.48053  1.0000
  C   C266      1.0  0.99033  0.28934  0.50384  1.0000
  C   C267      1.0  0.68806  0.27469  0.45853  1.0000
  C   C268      1.0  0.68516  0.24373  0.40331  1.0000
  C   C269      1.0  0.99397  0.99105  0.55877  1.0000
  C   C270      1.0  0.99294  0.01899  0.48337  1.0000
  C   C271      1.0  0.69204  0.03233  0.44141  1.0000
  C   C272      1.0  0.69047  0.06031  0.37718  1.0000
  C   C273      1.0  0.98943  0.07495  0.35135  1.0000
  C   C274      1.0  0.95690  0.05690  0.37899  1.0000
  C   C275      1.0  0.95889  0.02949  0.44450  1.0000
  C   C276      1.0  0.96495  0.99713  0.63025  1.0000
  C   C277      1.0  0.69479  0.32668  0.61710  1.0000
  C   C278      1.0  0.70795  0.02813  0.64729  1.0000
  C   C279      1.0  0.71220  0.29491  0.65294  1.0000
  C   C280      1.0  0.95473  0.03325  0.65732  1.0000
  H   H232      1.0  0.69568  0.05204  0.62730  1.0000
  H   H233      1.0  0.70250  0.26913  0.63884  1.0000
  H   H234      1.0  0.96384  0.05583  0.62329  1.0000
  H   H235      1.0  0.93475  0.01953  0.46940  1.0000
  H   H236      1.0  0.93158  0.06816  0.36579  1.0000
  H   H237      1.0  0.71441  0.07377  0.36107  1.0000
  H   H238      1.0  0.71745  0.02423  0.46267  1.0000
  H   H239      1.0  0.71376  0.28536  0.46881  1.0000
  H   H240      1.0  0.93179  0.28496  0.50745  1.0000
  H   H241      1.0  0.92676  0.23210  0.41534  1.0000
  H   H242      1.0  0.70887  0.23148  0.38116  1.0000
  C   C281      1.0  0.64999  0.16694  0.44286  1.0000
  N   N28       1.0  0.98529  0.13003  0.43511  1.0000
  C   C282      1.0  0.98734  0.11362  0.35429  1.0000
  O   O14       1.0  0.64898  0.18074  0.52653  1.0000
  H   H243      1.0  0.98552  0.11525  0.48927  1.0000
  C   C283      1.0  0.82447  0.01261  0.65915  1.0000
  C   C284      1.0  0.81887  0.01764  0.55915  1.0000
  C   C285      1.0  0.85658  0.01714  0.50688  1.0000
  H   H244      1.0  0.87428  0.03997  0.52766  1.0000
  H   H245      1.0  0.85261  0.01979  0.43533  1.0000
  H   H246      1.0  0.87131  0.32468  0.51881  1.0000
  C   C286      1.0  0.80100  0.05589  0.53778  1.0000
  H   H247      1.0  0.81557  0.07802  0.57233  1.0000
  H   H248      1.0  0.77220  0.05700  0.55646  1.0000
  H   H249      1.0  0.80192  0.06179  0.46679  1.0000
  C   C287      1.0  0.79558  0.31905  0.51749  1.0000
  H   H250      1.0  0.80572  0.29221  0.53946  1.0000
  H   H251      1.0  0.79639  0.31964  0.44510  1.0000
  H   H252      1.0  0.76680  0.32141  0.53546  1.0000
  C   C288      1.0  0.74035  0.36461  0.03045  1.0000
  C   C289      1.0  0.76141  0.66621  0.04694  1.0000
  C   C290      1.0  0.74586  0.63109  0.03209  1.0000
  C   C291      1.0  0.95266  0.63438  0.01820  1.0000
  C   C292      1.0  0.92623  0.64007  0.08509  1.0000
  C   C293      1.0  0.91233  0.34251  0.10140  1.0000
  C   C294      1.0  0.93037  0.37278  0.06133  1.0000
  H   H253      1.0  0.75089  0.39032  0.04287  1.0000
  H   H254      1.0  0.76065  0.60764  0.04464  1.0000
  H   H255      1.0  0.96050  0.60793  0.00461  1.0000
  H   H256      1.0  0.91276  0.61751  0.10990  1.0000
  H   H257      1.0  0.91960  0.39874  0.06799  1.0000
  C   C295      1.0  0.65238  0.50591  0.28121  1.0000
  C   C296      1.0  0.64979  0.52310  0.36645  1.0000
  N   N29       1.0  0.98745  0.46825  0.28064  1.0000
  C   C297      1.0  0.65097  0.52517  0.19174  1.0000
  C   C298      1.0  0.65601  0.49747  0.11224  1.0000
  H   H258      1.0  0.68268  0.48358  0.11639  1.0000
  H   H259      1.0  0.65475  0.51162  0.04840  1.0000
  H   H260      1.0  0.96775  0.47642  0.11229  1.0000
  C   C299      1.0  0.68208  0.55487  0.18172  1.0000
  H   H261      1.0  0.70883  0.54337  0.20009  1.0000
  H   H262      1.0  0.67685  0.57903  0.22258  1.0000
  H   H263      1.0  0.68396  0.56478  0.11355  1.0000
  C   C300      1.0  0.94565  0.54356  0.18009  1.0000
  H   H264      1.0  0.92363  0.52333  0.18939  1.0000
  H   H265      1.0  0.94277  0.55518  0.11375  1.0000
  H   H266      1.0  0.94148  0.56583  0.22757  1.0000
  C   C301      1.0  0.79936  0.33678  0.06238  1.0000
  C   C302      1.0  0.81329  0.33059  0.14929  1.0000
  N   N30       1.0  0.85010  0.33348  0.16626  1.0000
  C   C303      1.0  0.87361  0.34441  0.10140  1.0000
  N   N31       1.0  0.85979  0.34896  0.01912  1.0000
  O   O15       1.0  0.79064  0.32074  0.21680  1.0000
  H   H267      1.0  0.85960  0.32781  0.22507  1.0000
  C   C304      1.0  0.98373  0.56128  0.38495  1.0000
  C   C305      1.0  0.95205  0.57766  0.42254  1.0000
  C   C306      1.0  0.95539  0.60782  0.48053  1.0000
  C   C307      1.0  0.99033  0.62267  0.50384  1.0000
  C   C308      1.0  0.68806  0.60803  0.45853  1.0000
  C   C309      1.0  0.68516  0.57707  0.40331  1.0000
  C   C310      1.0  0.99397  0.32439  0.55877  1.0000
  C   C311      1.0  0.99294  0.35233  0.48337  1.0000
  C   C312      1.0  0.69204  0.36566  0.44141  1.0000
  C   C313      1.0  0.69047  0.39364  0.37718  1.0000
  C   C314      1.0  0.98943  0.40829  0.35135  1.0000
  C   C315      1.0  0.95690  0.39023  0.37899  1.0000
  C   C316      1.0  0.95889  0.36282  0.44450  1.0000
  C   C317      1.0  0.96495  0.33046  0.63025  1.0000
  C   C318      1.0  0.69479  0.66001  0.61710  1.0000
  C   C319      1.0  0.70795  0.36146  0.64729  1.0000
  C   C320      1.0  0.71221  0.62824  0.65294  1.0000
  C   C321      1.0  0.95473  0.36658  0.65732  1.0000
  H   H268      1.0  0.69568  0.38537  0.62730  1.0000
  H   H269      1.0  0.70250  0.60246  0.63884  1.0000
  H   H270      1.0  0.96384  0.38916  0.62329  1.0000
  H   H271      1.0  0.93475  0.35286  0.46940  1.0000
  H   H272      1.0  0.93158  0.40149  0.36579  1.0000
  H   H273      1.0  0.71441  0.40710  0.36107  1.0000
  H   H274      1.0  0.71745  0.35756  0.46267  1.0000
  H   H275      1.0  0.71376  0.61870  0.46881  1.0000
  H   H276      1.0  0.93179  0.61830  0.50745  1.0000
  H   H277      1.0  0.92676  0.56544  0.41534  1.0000
  H   H278      1.0  0.70887  0.56482  0.38116  1.0000
  C   C322      1.0  0.64999  0.50027  0.44286  1.0000
  N   N32       1.0  0.98529  0.46336  0.43511  1.0000
  C   C323      1.0  0.98734  0.44696  0.35429  1.0000
  O   O16       1.0  0.64898  0.51408  0.52653  1.0000
  H   H279      1.0  0.98552  0.44858  0.48927  1.0000
  C   C324      1.0  0.82447  0.34594  0.65915  1.0000
  C   C325      1.0  0.81887  0.35097  0.55915  1.0000
  C   C326      1.0  0.85658  0.35048  0.50688  1.0000
  H   H280      1.0  0.87428  0.37331  0.52766  1.0000
  H   H281      1.0  0.85261  0.35313  0.43533  1.0000
  H   H282      1.0  0.87131  0.65801  0.51881  1.0000
  C   C327      1.0  0.80100  0.38922  0.53778  1.0000
  H   H283      1.0  0.81557  0.41135  0.57233  1.0000
  H   H284      1.0  0.77219  0.39034  0.55646  1.0000
  H   H285      1.0  0.80192  0.39512  0.46679  1.0000
  C   C328      1.0  0.79558  0.65238  0.51749  1.0000
  H   H286      1.0  0.80572  0.62554  0.53946  1.0000
  H   H287      1.0  0.79640  0.65298  0.44510  1.0000
  H   H288      1.0  0.76680  0.65475  0.53546  1.0000
  C   C329      1.0  0.74035  0.69794  0.03045  1.0000
  C   C330      1.0  0.76141  0.99954  0.04694  1.0000
  C   C331      1.0  0.74585  0.96442  0.03209  1.0000
  C   C332      1.0  0.95266  0.96771  0.01820  1.0000
  C   C333      1.0  0.92622  0.97341  0.08509  1.0000
  C   C334      1.0  0.91233  0.67584  0.10140  1.0000
  C   C335      1.0  0.93037  0.70611  0.06133  1.0000
  H   H289      1.0  0.75089  0.72365  0.04287  1.0000
  H   H290      1.0  0.76065  0.94098  0.04464  1.0000
  H   H291      1.0  0.96050  0.94126  0.00461  1.0000
  H   H292      1.0  0.91276  0.95084  0.10990  1.0000
  H   H293      1.0  0.91960  0.73207  0.06799  1.0000
  C   C336      1.0  0.65238  0.83925  0.28121  1.0000
  C   C337      1.0  0.64979  0.85643  0.36645  1.0000
  N   N33       1.0  0.98745  0.80158  0.28064  1.0000
  C   C338      1.0  0.65097  0.85850  0.19174  1.0000
  C   C339      1.0  0.65601  0.83080  0.11224  1.0000
  H   H294      1.0  0.68268  0.81691  0.11639  1.0000
  H   H295      1.0  0.65475  0.84495  0.04840  1.0000
  H   H296      1.0  0.96775  0.80975  0.11229  1.0000
  C   C340      1.0  0.68208  0.88820  0.18172  1.0000
  H   H297      1.0  0.70883  0.87670  0.20009  1.0000
  H   H298      1.0  0.67685  0.91236  0.22258  1.0000
  H   H299      1.0  0.68396  0.89811  0.11355  1.0000
  C   C341      1.0  0.94565  0.87689  0.18009  1.0000
  H   H300      1.0  0.92363  0.85666  0.18939  1.0000
  H   H301      1.0  0.94277  0.88851  0.11375  1.0000
  H   H302      1.0  0.94148  0.89917  0.22757  1.0000
  C   C342      1.0  0.79936  0.67011  0.06238  1.0000
  C   C343      1.0  0.81329  0.66392  0.14929  1.0000
  N   N34       1.0  0.85010  0.66682  0.16626  1.0000
  C   C344      1.0  0.87361  0.67774  0.10140  1.0000
  N   N35       1.0  0.85979  0.68229  0.01912  1.0000
  O   O17       1.0  0.79064  0.65407  0.21680  1.0000
  H   H303      1.0  0.85960  0.66114  0.22507  1.0000
  C   C345      1.0  0.98373  0.89462  0.38495  1.0000
  C   C346      1.0  0.95205  0.91099  0.42254  1.0000
  C   C347      1.0  0.95539  0.94116  0.48053  1.0000
  C   C348      1.0  0.99033  0.95601  0.50384  1.0000
  C   C349      1.0  0.68806  0.94136  0.45853  1.0000
  C   C350      1.0  0.68516  0.91040  0.40331  1.0000
  C   C351      1.0  0.99397  0.65772  0.55877  1.0000
  C   C352      1.0  0.99294  0.68566  0.48337  1.0000
  C   C353      1.0  0.69204  0.69900  0.44141  1.0000
  C   C354      1.0  0.69047  0.72698  0.37718  1.0000
  C   C355      1.0  0.98943  0.74162  0.35135  1.0000
  C   C356      1.0  0.95690  0.72357  0.37899  1.0000
  C   C357      1.0  0.95889  0.69616  0.44450  1.0000
  C   C358      1.0  0.96495  0.66380  0.63025  1.0000
  C   C359      1.0  0.69479  0.99335  0.61710  1.0000
  C   C360      1.0  0.70795  0.69479  0.64729  1.0000
  C   C361      1.0  0.71221  0.96157  0.65294  1.0000
  C   C362      1.0  0.95473  0.69991  0.65732  1.0000
  H   H304      1.0  0.69568  0.71871  0.62730  1.0000
  H   H305      1.0  0.70250  0.93580  0.63884  1.0000
  H   H306      1.0  0.96384  0.72250  0.62329  1.0000
  H   H307      1.0  0.93475  0.68620  0.46940  1.0000
  H   H308      1.0  0.93158  0.73482  0.36579  1.0000
  H   H309      1.0  0.71441  0.74044  0.36107  1.0000
  H   H310      1.0  0.71745  0.69089  0.46267  1.0000
  H   H311      1.0  0.71376  0.95203  0.46881  1.0000
  H   H312      1.0  0.93179  0.95163  0.50745  1.0000
  H   H313      1.0  0.92676  0.89877  0.41534  1.0000
  H   H314      1.0  0.70887  0.89815  0.38116  1.0000
  C   C363      1.0  0.64999  0.83361  0.44286  1.0000
  N   N36       1.0  0.98529  0.79669  0.43511  1.0000
  C   C364      1.0  0.98734  0.78029  0.35429  1.0000
  O   O18       1.0  0.64898  0.84741  0.52653  1.0000
  H   H315      1.0  0.98552  0.78192  0.48927  1.0000
  C   C365      1.0  0.82447  0.67927  0.65915  1.0000
  C   C366      1.0  0.81887  0.68431  0.55915  1.0000
  C   C367      1.0  0.85658  0.68381  0.50688  1.0000
  H   H316      1.0  0.87428  0.70664  0.52766  1.0000
  H   H317      1.0  0.85261  0.68646  0.43533  1.0000
  H   H318      1.0  0.87131  0.99134  0.51881  1.0000
  C   C368      1.0  0.80100  0.72255  0.53778  1.0000
  H   H319      1.0  0.81557  0.74469  0.57233  1.0000
  H   H320      1.0  0.77219  0.72367  0.55646  1.0000
  H   H321      1.0  0.80192  0.72845  0.46679  1.0000
  C   C369      1.0  0.79558  0.98572  0.51749  1.0000
  H   H322      1.0  0.80572  0.95888  0.53946  1.0000
  H   H323      1.0  0.79640  0.98631  0.44510  1.0000
  H   H324      1.0  0.76680  0.98808  0.53546  1.0000
