data_image0
_chemical_formula_structural       C2NC2ONH2C2NC2ONH2NCHNCHNCHNCHNCHNCHC2NC2ONH2C2NC2ONH2NCHNCHC2NC2ONH2C2NC2ONH2NCHNCHNCHNCHC2NC2ONH2C2NC2ONH2NCHNCHC2NC2ONH2C2NC2ONH2NCHNCHNCHNCHC2NC2ONH2C2NC2ONH2CNCNCNCNCNCNCNCNCNCNCNCNCNCNCNCNCNCNCNCNCNCNCNCNCNCNCNCNCNCNCNCNCNCNCNCNCNCNCNCNCNCNCNCNCNCNCNCNCNCNCNCNCNCNCNCNCNCNCNCN2CHNCHC2NC2ONH2C2NC2ONH2C2NC2ONH2C2NC2ONH2C2NC2ONH2C2NC2ONH2NCHNCHC2NC2ONH2C2NC2ONH2NCHNCHC2NC2ONH2C2NC2ONH2C2NC2ONH2C2NC2ONH2NCHNCHC2NC2ONH2C2NC2ONH2NCHNCHC2NC2ONH2C2NC2ONH2C2NC2ONH2C2NC2ONH2NCHNCHC2NC2ONH2C2NC2ONH2NCHNCHNCHNCHNCHNCHC2NC2ONH2C2NC2ONH2NCHNCHC2NC2ONH2C2NC2ONH2NCHNCHNCHNCHC2NC2ONH2C2NC2ONH2NCHNCHC2NC2ONH2C2NC2ONH2NCHNCHNCHNCHC2NC2ONH2C2NC2ONH2CNCNCNCNCNCNCNCNCNCNCNCNCNCNCNCNCNCNCNCNCNCNCNCNCNCNCNCNCNCNCNCNCNCNCNCNCNCNCNCNCNCNCNCNCNCNCNCNCNCNCNCNCNCNCNCNCNCNCNCN2CHNCHC2NC2ONH2C2NC2ONH2C2NC2ONH2C2NC2ONH2C2NC2ONH2C2NC2ONH2NCHNCHC2NC2ONH2C2NC2ONH2NCHNCHC2NC2ONH2C2NC2ONH2C2NC2ONH2C2NC2ONH2NCHNCHC2NC2ONH2C2NC2ONH2NCHNCHC2NC2ONH2C2NC2ONH2C2NC2ONH2C2NC2ONH2NCHNCH
_chemical_formula_sum              "C420 N300 O60 H180"
_cell_length_a       83.82
_cell_length_b       44.152
_cell_length_c       14.914
_cell_angle_alpha    90
_cell_angle_beta     90
_cell_angle_gamma    90

_space_group_name_H-M_alt    "P 1"
_space_group_IT_number       1

loop_
  _space_group_symop_operation_xyz
  'x, y, z'

loop_
  _atom_site_type_symbol
  _atom_site_label
  _atom_site_symmetry_multiplicity
  _atom_site_fract_x
  _atom_site_fract_y
  _atom_site_fract_z
  _atom_site_occupancy
  C   C1        1.0  0.23679  0.13670  0.31209  1.0000
  C   C2        1.0  0.26964  0.12198  0.30911  1.0000
  N   N1        1.0  0.25790  0.10222  0.28370  1.0000
  C   C3        1.0  0.24193  0.10799  0.28092  1.0000
  C   C4        1.0  0.23193  0.08490  0.24680  1.0000
  O   O1        1.0  0.23606  0.05569  0.26155  1.0000
  N   N2        1.0  0.22034  0.09034  0.18581  1.0000
  H   H1        1.0  0.21831  0.11062  0.16317  1.0000
  H   H2        1.0  0.21464  0.07357  0.15827  1.0000
  C   C5        1.0  0.76892  0.37114  0.31221  1.0000
  C   C6        1.0  0.73608  0.38584  0.30829  1.0000
  N   N3        1.0  0.74782  0.40554  0.28265  1.0000
  C   C7        1.0  0.76380  0.39977  0.28025  1.0000
  C   C8        1.0  0.77382  0.42275  0.24576  1.0000
  O   O2        1.0  0.76963  0.45201  0.25905  1.0000
  N   N4        1.0  0.78548  0.41715  0.18533  1.0000
  H   H3        1.0  0.78752  0.39680  0.16322  1.0000
  H   H4        1.0  0.79114  0.43385  0.15711  1.0000
  N   N5        1.0  0.75751  0.15531  0.32195  1.0000
  C   C9        1.0  0.74158  0.15015  0.32606  1.0000
  H   H5        1.0  0.73376  0.16541  0.29925  1.0000
  N   N6        1.0  0.24790  0.35268  0.32094  1.0000
  C   C10       1.0  0.26383  0.35780  0.32495  1.0000
  H   H6        1.0  0.27161  0.34266  0.29720  1.0000
  N   N7        1.0  0.28733  0.02032  0.33241  1.0000
  C   C11       1.0  0.28645  0.48999  0.32598  1.0000
  H   H7        1.0  0.27687  0.48032  0.29472  1.0000
  N   N8        1.0  0.71834  0.48748  0.33301  1.0000
  C   C12       1.0  0.71914  0.01782  0.32666  1.0000
  H   H8        1.0  0.72865  0.02757  0.29488  1.0000
  N   N9        1.0  0.78821  0.27073  0.31513  1.0000
  C   C13       1.0  0.78754  0.24063  0.30213  1.0000
  H   H9        1.0  0.77794  0.23144  0.26969  1.0000
  N   N10       1.0  0.21736  0.23720  0.31403  1.0000
  C   C14       1.0  0.21796  0.26731  0.30103  1.0000
  H   H10       1.0  0.22749  0.27656  0.26814  1.0000
  C   C15       1.0  0.36136  0.14327  0.32340  1.0000
  C   C16       1.0  0.32937  0.12515  0.34578  1.0000
  N   N11       1.0  0.33337  0.14969  0.29552  1.0000
  C   C17       1.0  0.34862  0.15991  0.28308  1.0000
  C   C18       1.0  0.35043  0.18510  0.22516  1.0000
  O   O3        1.0  0.33888  0.20653  0.22482  1.0000
  N   N12       1.0  0.36189  0.18703  0.16159  1.0000
  H   H11       1.0  0.36944  0.17068  0.15150  1.0000
  H   H12       1.0  0.36198  0.20397  0.11991  1.0000
  C   C19       1.0  0.64431  0.36481  0.32071  1.0000
  C   C20       1.0  0.67631  0.38281  0.34365  1.0000
  N   N13       1.0  0.67232  0.35820  0.29366  1.0000
  C   C21       1.0  0.65706  0.34804  0.28096  1.0000
  C   C22       1.0  0.65525  0.32269  0.22366  1.0000
  O   O4        1.0  0.66683  0.30131  0.22348  1.0000
  N   N14       1.0  0.64377  0.32054  0.16024  1.0000
  H   H13       1.0  0.63625  0.33691  0.14970  1.0000
  H   H14       1.0  0.64373  0.30357  0.11870  1.0000
  N   N15       1.0  0.64854  0.11826  0.31178  1.0000
  C   C23       1.0  0.66374  0.10877  0.30081  1.0000
  H   H15       1.0  0.66565  0.08926  0.26553  1.0000
  N   N16       1.0  0.35683  0.38948  0.30880  1.0000
  C   C24       1.0  0.34159  0.39878  0.29782  1.0000
  H   H16       1.0  0.33961  0.41817  0.26208  1.0000
  C   C25       1.0  0.86111  0.39317  0.32399  1.0000
  C   C26       1.0  0.82896  0.37634  0.34733  1.0000
  N   N17       1.0  0.83325  0.39934  0.29174  1.0000
  C   C27       1.0  0.84860  0.40900  0.27884  1.0000
  C   C28       1.0  0.85075  0.43267  0.21578  1.0000
  O   O5        1.0  0.83918  0.45392  0.20841  1.0000
  N   N18       1.0  0.86266  0.43331  0.15467  1.0000
  H   H17       1.0  0.87030  0.41684  0.14950  1.0000
  H   H18       1.0  0.86297  0.44919  0.10951  1.0000
  C   C29       1.0  0.14456  0.11495  0.32183  1.0000
  C   C30       1.0  0.17671  0.13159  0.34570  1.0000
  N   N19       1.0  0.17243  0.10857  0.29018  1.0000
  C   C31       1.0  0.15707  0.09899  0.27708  1.0000
  C   C32       1.0  0.15491  0.07520  0.21444  1.0000
  O   O6        1.0  0.16650  0.05399  0.20709  1.0000
  N   N20       1.0  0.14296  0.07440  0.15350  1.0000
  H   H19       1.0  0.13536  0.09091  0.14799  1.0000
  H   H20       1.0  0.14269  0.05852  0.10835  1.0000
  N   N21       1.0  0.14800  0.37012  0.30633  1.0000
  C   C33       1.0  0.16313  0.36092  0.29161  1.0000
  H   H21       1.0  0.16489  0.34268  0.25054  1.0000
  N   N22       1.0  0.85736  0.13777  0.30388  1.0000
  C   C34       1.0  0.84220  0.14681  0.28932  1.0000
  H   H22       1.0  0.84037  0.16496  0.24803  1.0000
  N   N23       1.0  0.09563  0.17286  0.34203  1.0000
  C   C35       1.0  0.08745  0.19928  0.34322  1.0000
  H   H23       1.0  0.09379  0.21901  0.34026  1.0000
  N   N24       1.0  0.91011  0.33550  0.34374  1.0000
  C   C36       1.0  0.91829  0.30911  0.34462  1.0000
  H   H24       1.0  0.91192  0.28940  0.34189  1.0000
  C   C37       1.0  0.91634  0.14618  0.34581  1.0000
  C   C38       1.0  0.93455  0.20073  0.34680  1.0000
  N   N25       1.0  0.94139  0.17274  0.34205  1.0000
  C   C39       1.0  0.93333  0.14572  0.34071  1.0000
  C   C40       1.0  0.94273  0.11944  0.33019  1.0000
  O   O7        1.0  0.95669  0.11768  0.37554  1.0000
  N   N26       1.0  0.94037  0.09973  0.26211  1.0000
  H   H25       1.0  0.93167  0.10233  0.21964  1.0000
  H   H26       1.0  0.94796  0.08349  0.25134  1.0000
  C   C41       1.0  0.08905  0.36219  0.34954  1.0000
  C   C42       1.0  0.07078  0.30765  0.35052  1.0000
  N   N27       1.0  0.06396  0.33569  0.34737  1.0000
  C   C43       1.0  0.07205  0.36269  0.34600  1.0000
  C   C44       1.0  0.06267  0.38907  0.33749  1.0000
  O   O8        1.0  0.04892  0.39086  0.38478  1.0000
  N   N28       1.0  0.06474  0.40889  0.26937  1.0000
  H   H27       1.0  0.07321  0.40626  0.22547  1.0000
  H   H28       1.0  0.05710  0.42514  0.25984  1.0000
  N   N29       1.0  0.59544  0.42230  0.34109  1.0000
  C   C45       1.0  0.58732  0.44877  0.34232  1.0000
  H   H29       1.0  0.59369  0.46845  0.33922  1.0000
  N   N30       1.0  0.41030  0.08598  0.34307  1.0000
  C   C46       1.0  0.41843  0.05954  0.34395  1.0000
  H   H30       1.0  0.41202  0.03988  0.34110  1.0000
  C   C47       1.0  0.41609  0.39670  0.34336  1.0000
  C   C48       1.0  0.43441  0.45111  0.34535  1.0000
  N   N31       1.0  0.44120  0.42308  0.34021  1.0000
  C   C49       1.0  0.43309  0.39613  0.33841  1.0000
  C   C50       1.0  0.44246  0.36983  0.32742  1.0000
  O   O9        1.0  0.45639  0.36788  0.37293  1.0000
  N   N32       1.0  0.44011  0.35034  0.25876  1.0000
  H   H31       1.0  0.43143  0.35310  0.21624  1.0000
  H   H32       1.0  0.44768  0.33409  0.24772  1.0000
  C   C51       1.0  0.58930  0.11159  0.34718  1.0000
  C   C52       1.0  0.57092  0.05720  0.34908  1.0000
  N   N33       1.0  0.56415  0.08527  0.34553  1.0000
  C   C53       1.0  0.57229  0.11221  0.34375  1.0000
  C   C54       1.0  0.56295  0.13861  0.33477  1.0000
  O   O10       1.0  0.54923  0.14060  0.38223  1.0000
  N   N34       1.0  0.56500  0.15821  0.26607  1.0000
  H   H33       1.0  0.57345  0.15542  0.22211  1.0000
  H   H34       1.0  0.55737  0.17447  0.25626  1.0000
  N   N35       1.0  0.11909  0.48713  0.34816  1.0000
  C   C55       1.0  0.12071  0.01717  0.33991  1.0000
  H   H35       1.0  0.13208  0.02526  0.33396  1.0000
  N   N36       1.0  0.88649  0.02108  0.34732  1.0000
  C   C56       1.0  0.88489  0.49101  0.33990  1.0000
  H   H36       1.0  0.87352  0.48287  0.33481  1.0000
  N   N37       1.0  0.61911  0.23668  0.34559  1.0000
  C   C57       1.0  0.62066  0.26676  0.33831  1.0000
  H   H37       1.0  0.63201  0.27495  0.33258  1.0000
  N   N38       1.0  0.38648  0.27146  0.34492  1.0000
  C   C58       1.0  0.38495  0.24136  0.33855  1.0000
  H   H38       1.0  0.37360  0.23311  0.33371  1.0000
  C   C59       1.0  0.98587  0.25271  0.33762  1.0000
  C   C60       1.0  0.01978  0.25419  0.34661  1.0000
  N   N39       1.0  0.01151  0.22881  0.32411  1.0000
  C   C61       1.0  0.99530  0.22658  0.31790  1.0000
  C   C62       1.0  0.98954  0.19852  0.28554  1.0000
  O   O11       1.0  0.99655  0.17275  0.31493  1.0000
  N   N40       1.0  0.97980  0.19652  0.21346  1.0000
  H   H39       1.0  0.97592  0.21450  0.18274  1.0000
  H   H40       1.0  0.97708  0.17683  0.18856  1.0000
  C   C63       1.0  0.48587  0.00272  0.33682  1.0000
  C   C64       1.0  0.51978  0.00410  0.34570  1.0000
  N   N41       1.0  0.51148  0.47874  0.32331  1.0000
  C   C65       1.0  0.49527  0.47656  0.31709  1.0000
  C   C66       1.0  0.48947  0.44849  0.28507  1.0000
  O   O12       1.0  0.49650  0.42271  0.31422  1.0000
  N   N42       1.0  0.47974  0.94643  0.21300  1.0000
  H   H41       1.0  0.47589  0.96439  0.18206  1.0000
  H   H42       1.0  0.47705  0.92673  0.18808  1.0000
  C   C67       1.0  0.31363  0.11289  0.34612  1.0000
  N   N43       1.0  0.29947  0.12712  0.32608  1.0000
  C   C68       1.0  0.28537  0.11111  0.32298  1.0000
  N   N44       1.0  0.28590  0.08116  0.34112  1.0000
  C   C69       1.0  0.29947  0.06660  0.36226  1.0000
  N   N45       1.0  0.31303  0.08275  0.36209  1.0000
  C   C70       1.0  0.69207  0.39497  0.34466  1.0000
  N   N46       1.0  0.70624  0.38073  0.32450  1.0000
  C   C71       1.0  0.72035  0.39670  0.32206  1.0000
  N   N47       1.0  0.71986  0.42660  0.34108  1.0000
  C   C72       1.0  0.70629  0.44113  0.36241  1.0000
  N   N48       1.0  0.69272  0.42504  0.36150  1.0000
  C   C73       1.0  0.69204  0.11253  0.34606  1.0000
  N   N49       1.0  0.70639  0.12762  0.35162  1.0000
  C   C74       1.0  0.72051  0.11185  0.35938  1.0000
  N   N50       1.0  0.71974  0.08137  0.36055  1.0000
  C   C75       1.0  0.70597  0.06610  0.35593  1.0000
  N   N51       1.0  0.69231  0.08184  0.34981  1.0000
  C   C76       1.0  0.31339  0.39512  0.34448  1.0000
  N   N52       1.0  0.29902  0.38009  0.35047  1.0000
  C   C77       1.0  0.28494  0.39591  0.35891  1.0000
  N   N53       1.0  0.28573  0.42639  0.36011  1.0000
  C   C78       1.0  0.29952  0.44159  0.35506  1.0000
  N   N54       1.0  0.31315  0.42580  0.34838  1.0000
  C   C79       1.0  0.81336  0.36356  0.34630  1.0000
  N   N55       1.0  0.79897  0.37739  0.32885  1.0000
  C   C80       1.0  0.78496  0.36103  0.32588  1.0000
  N   N56       1.0  0.78610  0.33082  0.33914  1.0000
  C   C81       1.0  0.79989  0.31644  0.35607  1.0000
  N   N57       1.0  0.81324  0.33315  0.35740  1.0000
  C   C82       1.0  0.19233  0.14433  0.34502  1.0000
  N   N58       1.0  0.20674  0.13050  0.32787  1.0000
  C   C83       1.0  0.22075  0.14685  0.32520  1.0000
  N   N59       1.0  0.21961  0.17707  0.33851  1.0000
  C   C84       1.0  0.20581  0.19143  0.35514  1.0000
  N   N60       1.0  0.19245  0.17473  0.35619  1.0000
  C   C85       1.0  0.19153  0.36290  0.33455  1.0000
  N   N61       1.0  0.20600  0.37736  0.34315  1.0000
  C   C86       1.0  0.22009  0.36128  0.34251  1.0000
  N   N62       1.0  0.21907  0.33088  0.33526  1.0000
  C   C87       1.0  0.20517  0.31611  0.32829  1.0000
  N   N63       1.0  0.19162  0.33226  0.32968  1.0000
  C   C88       1.0  0.81389  0.14490  0.33363  1.0000
  N   N64       1.0  0.79942  0.13048  0.34234  1.0000
  C   C89       1.0  0.78534  0.14660  0.34234  1.0000
  N   N65       1.0  0.78638  0.17701  0.33569  1.0000
  C   C90       1.0  0.80029  0.19175  0.32864  1.0000
  N   N66       1.0  0.81383  0.17554  0.32936  1.0000
  C   C91       1.0  0.10043  0.12012  0.33964  1.0000
  N   N67       1.0  0.09702  0.08958  0.34041  1.0000
  C   C92       1.0  0.10872  0.06785  0.33489  1.0000
  N   N68       1.0  0.12391  0.07812  0.32662  1.0000
  C   C93       1.0  0.12815  0.10737  0.32346  1.0000
  N   N69       1.0  0.11620  0.12785  0.33233  1.0000
  C   C94       1.0  0.90527  0.38817  0.34088  1.0000
  N   N70       1.0  0.90865  0.41873  0.34091  1.0000
  C   C95       1.0  0.89693  0.44039  0.33538  1.0000
  N   N71       1.0  0.88174  0.43005  0.32775  1.0000
  C   C96       1.0  0.87752  0.40078  0.32524  1.0000
  N   N72       1.0  0.88950  0.38037  0.33418  1.0000
  C   C97       1.0  0.90545  0.12146  0.35035  1.0000
  N   N73       1.0  0.90936  0.09122  0.35253  1.0000
  C   C98       1.0  0.89806  0.06878  0.35718  1.0000
  N   N74       1.0  0.88259  0.07818  0.36064  1.0000
  C   C99       1.0  0.87787  0.10727  0.36035  1.0000
  N   N75       1.0  0.88956  0.12836  0.35356  1.0000
  C   C100      1.0  0.09998  0.38686  0.35377  1.0000
  N   N76       1.0  0.09613  0.41713  0.35581  1.0000
  C   C101      1.0  0.10747  0.43951  0.35987  1.0000
  N   N77       1.0  0.12292  0.43003  0.36292  1.0000
  C   C102      1.0  0.12759  0.40090  0.36287  1.0000
  N   N78       1.0  0.11587  0.37988  0.35651  1.0000
  C   C103      1.0  0.60018  0.36957  0.33880  1.0000
  N   N79       1.0  0.59681  0.33901  0.33971  1.0000
  C   C104      1.0  0.60854  0.31734  0.33432  1.0000
  N   N80       1.0  0.62371  0.32771  0.32617  1.0000
  C   C105      1.0  0.62793  0.35697  0.32269  1.0000
  N   N81       1.0  0.61593  0.37734  0.33127  1.0000
  C   C106      1.0  0.40553  0.13866  0.34035  1.0000
  N   N82       1.0  0.40888  0.16922  0.34047  1.0000
  C   C107      1.0  0.39712  0.19082  0.33511  1.0000
  N   N83       1.0  0.38195  0.18039  0.32770  1.0000
  C   C108      1.0  0.37774  0.15112  0.32493  1.0000
  N   N84       1.0  0.38977  0.13081  0.33354  1.0000
  C   C109      1.0  0.40518  0.37201  0.34735  1.0000
  N   N85       1.0  0.40916  0.34181  0.34936  1.0000
  C   C110      1.0  0.39793  0.31928  0.35354  1.0000
  N   N86       1.0  0.38245  0.32857  0.35660  1.0000
  C   C111      1.0  0.37761  0.35760  0.35658  1.0000
  N   N87       1.0  0.38926  0.37881  0.35054  1.0000
  C   C112      1.0  0.60025  0.13624  0.35085  1.0000
  N   N88       1.0  0.59633  0.16647  0.35264  1.0000
  C   C113      1.0  0.60760  0.18894  0.35618  1.0000
  N   N89       1.0  0.62308  0.17955  0.35889  1.0000
  C   C114      1.0  0.62787  0.15049  0.35918  1.0000
  N   N90       1.0  0.61616  0.12935  0.35363  1.0000
  C   C115      1.0  0.06167  0.28057  0.35007  1.0000
  N   N91       1.0  0.04541  0.28011  0.34983  1.0000
  C   C116      1.0  0.03685  0.25374  0.34847  1.0000
  N   N92       1.0  0.04517  0.22699  0.34703  1.0000
  C   C117      1.0  0.06147  0.22596  0.34731  1.0000
  N   N93       1.0  0.06910  0.25318  0.34875  1.0000
  C   C118      1.0  0.94367  0.22776  0.34627  1.0000
  N   N94       1.0  0.95989  0.22798  0.34354  1.0000
  C   C119      1.0  0.96873  0.25397  0.34096  1.0000
  N   N95       1.0  0.96055  0.28093  0.34310  1.0000
  C   C120      1.0  0.94424  0.28232  0.34574  1.0000
  N   N96       1.0  0.93642  0.25527  0.34698  1.0000
  C   C121      1.0  0.56173  0.03022  0.34893  1.0000
  N   N97       1.0  0.54547  0.02989  0.34873  1.0000
  C   C122      1.0  0.53684  0.00357  0.34758  1.0000
  N   N98       1.0  0.54511  0.47676  0.34629  1.0000
  C   C123      1.0  0.56140  0.47562  0.34654  1.0000
  N   N99       1.0  0.56910  0.00277  0.34777  1.0000
  C   C124      1.0  0.44361  0.47804  0.34516  1.0000
  N   N100      1.0  0.45983  0.47813  0.34249  1.0000
  C   C125      1.0  0.46873  0.50406  0.34016  1.0000
  N   N101      1.0  0.46061  0.03107  0.34247  1.0000
  C   C126      1.0  0.44431  0.03258  0.34506  1.0000
  N   N102      1.0  0.43643  0.50561  0.34607  1.0000
  N   N103      1.0  0.24867  0.15640  0.33654  1.0000
  C   C127      1.0  0.26458  0.15097  0.33461  1.0000
  H   H43       1.0  0.27236  0.16686  0.35844  1.0000
  N   N104      1.0  0.75703  0.35149  0.33687  1.0000
  C   C128      1.0  0.74113  0.35688  0.33433  1.0000
  H   H44       1.0  0.73335  0.34108  0.35875  1.0000
  C   C129      1.0  0.76931  0.13629  0.35182  1.0000
  C   C130      1.0  0.73646  0.12252  0.36222  1.0000
  N   N105      1.0  0.74820  0.10355  0.39238  1.0000
  C   C131      1.0  0.76419  0.10878  0.39110  1.0000
  C   C132      1.0  0.77407  0.08679  0.43184  1.0000
  O   O13       1.0  0.76997  0.05726  0.42374  1.0000
  N   N106      1.0  0.78547  0.09390  0.49246  1.0000
  H   H45       1.0  0.78743  0.11473  0.51039  1.0000
  H   H46       1.0  0.79107  0.07794  0.52457  1.0000
  C   C133      1.0  0.23612  0.37159  0.35175  1.0000
  C   C134      1.0  0.26899  0.38528  0.36192  1.0000
  N   N107      1.0  0.25728  0.40414  0.39305  1.0000
  C   C135      1.0  0.24129  0.39892  0.39201  1.0000
  C   C136      1.0  0.23143  0.42074  0.43376  1.0000
  O   O14       1.0  0.23559  0.45029  0.42725  1.0000
  N   N108      1.0  0.22005  0.41340  0.49423  1.0000
  H   H47       1.0  0.21812  0.39249  0.51152  1.0000
  H   H48       1.0  0.21454  0.42922  0.52743  1.0000
  C   C137      1.0  0.29965  0.03517  0.37205  1.0000
  C   C138      1.0  0.29939  0.47291  0.35831  1.0000
  N   N109      1.0  0.31163  0.48745  0.39891  1.0000
  C   C139      1.0  0.31240  0.01791  0.40868  1.0000
  C   C140      1.0  0.32523  0.02909  0.46063  1.0000
  O   O15       1.0  0.33954  0.01500  0.45502  1.0000
  N   N110      1.0  0.32307  0.04917  0.52802  1.0000
  H   H49       1.0  0.31261  0.05751  0.54169  1.0000
  H   H50       1.0  0.33191  0.05449  0.56715  1.0000
  C   C141      1.0  0.70611  0.47253  0.37314  1.0000
  C   C142      1.0  0.70618  0.03479  0.35923  1.0000
  N   N111      1.0  0.69401  0.02013  0.40020  1.0000
  C   C143      1.0  0.69335  0.48967  0.41011  1.0000
  C   C144      1.0  0.68054  0.47833  0.46200  1.0000
  O   O16       1.0  0.66624  0.49247  0.45736  1.0000
  N   N112      1.0  0.68271  0.45794  0.52860  1.0000
  H   H51       1.0  0.69317  0.44958  0.54192  1.0000
  H   H52       1.0  0.67389  0.45256  0.56784  1.0000
  C   C145      1.0  0.80038  0.28488  0.35835  1.0000
  C   C146      1.0  0.80047  0.22307  0.33205  1.0000
  N   N113      1.0  0.81256  0.23694  0.37618  1.0000
  C   C147      1.0  0.81324  0.26715  0.39138  1.0000
  C   C148      1.0  0.82596  0.27740  0.44585  1.0000
  O   O17       1.0  0.84035  0.26374  0.43797  1.0000
  N   N114      1.0  0.82364  0.29585  0.51707  1.0000
  H   H53       1.0  0.81312  0.30362  0.53214  1.0000
  H   H54       1.0  0.83241  0.30038  0.55754  1.0000
  C   C149      1.0  0.20529  0.22298  0.35789  1.0000
  C   C150      1.0  0.20503  0.28478  0.33140  1.0000
  N   N115      1.0  0.19302  0.27083  0.37602  1.0000
  C   C151      1.0  0.19243  0.24062  0.39135  1.0000
  C   C152      1.0  0.17977  0.23023  0.44601  1.0000
  O   O18       1.0  0.16537  0.24393  0.43905  1.0000
  N   N116      1.0  0.18215  0.21165  0.51685  1.0000
  H   H55       1.0  0.19269  0.20391  0.53160  1.0000
  H   H56       1.0  0.17342  0.20711  0.55764  1.0000
  N   N117      1.0  0.35738  0.11907  0.37435  1.0000
  C   C153      1.0  0.34224  0.10964  0.38705  1.0000
  H   H57       1.0  0.34057  0.09091  0.42591  1.0000
  N   N118      1.0  0.64830  0.38901  0.37165  1.0000
  C   C154      1.0  0.66343  0.39840  0.38460  1.0000
  H   H58       1.0  0.66508  0.41714  0.42339  1.0000
  C   C155      1.0  0.64438  0.14328  0.35904  1.0000
  C   C156      1.0  0.67644  0.12513  0.34056  1.0000
  N   N119      1.0  0.67232  0.15036  0.38731  1.0000
  C   C157      1.0  0.65703  0.16065  0.39747  1.0000
  C   C158      1.0  0.65510  0.18632  0.45333  1.0000
  O   O19       1.0  0.66638  0.20824  0.45053  1.0000
  N   N120      1.0  0.64405  0.18799  0.51924  1.0000
  H   H59       1.0  0.63685  0.17127  0.53177  1.0000
  H   H60       1.0  0.64394  0.20522  0.55987  1.0000
  C   C159      1.0  0.36109  0.36470  0.35685  1.0000
  C   C160      1.0  0.32896  0.38247  0.33848  1.0000
  N   N121      1.0  0.33319  0.35746  0.38597  1.0000
  C   C161      1.0  0.34851  0.34735  0.39609  1.0000
  C   C162      1.0  0.35055  0.32181  0.45237  1.0000
  O   O20       1.0  0.33927  0.29986  0.45077  1.0000
  N   N122      1.0  0.36168  0.32033  0.51786  1.0000
  H   H61       1.0  0.36885  0.33715  0.52988  1.0000
  H   H62       1.0  0.36182  0.30326  0.55909  1.0000
  N   N123      1.0  0.85683  0.37059  0.38044  1.0000
  C   C163      1.0  0.84158  0.36189  0.39397  1.0000
  H   H63       1.0  0.83962  0.34431  0.43691  1.0000
  N   N124      1.0  0.14885  0.13746  0.37850  1.0000
  C   C164      1.0  0.16410  0.14607  0.39232  1.0000
  H   H64       1.0  0.16607  0.16364  0.43530  1.0000
  C   C165      1.0  0.14404  0.39349  0.36082  1.0000
  C   C166      1.0  0.17597  0.37578  0.33496  1.0000
  N   N125      1.0  0.17204  0.39946  0.38888  1.0000
  C   C167      1.0  0.15680  0.40951  0.40302  1.0000
  C   C168      1.0  0.15500  0.43348  0.46535  1.0000
  O   O21       1.0  0.16660  0.45475  0.46981  1.0000
  N   N126      1.0  0.14359  0.43406  0.52949  1.0000
  H   H65       1.0  0.13608  0.41749  0.53696  1.0000
  H   H66       1.0  0.14358  0.45005  0.57436  1.0000
  C   C169      1.0  0.86142  0.11459  0.35886  1.0000
  C   C170      1.0  0.82943  0.13196  0.33341  1.0000
  N   N127      1.0  0.83345  0.10845  0.38774  1.0000
  C   C171      1.0  0.84873  0.09856  0.40167  1.0000
  C   C172      1.0  0.85064  0.07466  0.46415  1.0000
  O   O22       1.0  0.83905  0.05339  0.46953  1.0000
  N   N128      1.0  0.86213  0.07419  0.52787  1.0000
  H   H67       1.0  0.86958  0.09087  0.53500  1.0000
  H   H68       1.0  0.86217  0.05834  0.57315  1.0000
  C   C173      1.0  0.08926  0.14446  0.34533  1.0000
  C   C174      1.0  0.07061  0.19882  0.34641  1.0000
  N   N129      1.0  0.06398  0.17058  0.34995  1.0000
  C   C175      1.0  0.07225  0.14369  0.35070  1.0000
  C   C176      1.0  0.06306  0.11703  0.35860  1.0000
  O   O23       1.0  0.04925  0.11519  0.31197  1.0000
  N   N130      1.0  0.06552  0.09663  0.42477  1.0000
  H   H69       1.0  0.07406  0.09919  0.46832  1.0000
  H   H70       1.0  0.05811  0.07995  0.43331  1.0000
  C   C177      1.0  0.91648  0.36390  0.34645  1.0000
  C   C178      1.0  0.93515  0.30953  0.34644  1.0000
  N   N131      1.0  0.94178  0.33778  0.34958  1.0000
  C   C179      1.0  0.93350  0.36466  0.35100  1.0000
  C   C180      1.0  0.94268  0.39134  0.35852  1.0000
  O   O24       1.0  0.95652  0.39314  0.31213  1.0000
  N   N132      1.0  0.94024  0.41185  0.42444  1.0000
  H   H71       1.0  0.93175  0.40929  0.46825  1.0000
  H   H72       1.0  0.94770  0.42846  0.43299  1.0000
  N   N133      1.0  0.90972  0.17437  0.35004  1.0000
  C   C181      1.0  0.91773  0.20098  0.35012  1.0000
  H   H73       1.0  0.91134  0.22064  0.35355  1.0000
  N   N134      1.0  0.09566  0.33397  0.35239  1.0000
  C   C182      1.0  0.08762  0.30739  0.35229  1.0000
  H   H74       1.0  0.09402  0.28772  0.35465  1.0000
  C   C183      1.0  0.58903  0.39394  0.34452  1.0000
  C   C184      1.0  0.57048  0.44841  0.34568  1.0000
  N   N135      1.0  0.56380  0.42021  0.34940  1.0000
  C   C185      1.0  0.57203  0.39327  0.35014  1.0000
  C   C186      1.0  0.56281  0.36666  0.35831  1.0000
  O   O25       1.0  0.54895  0.36488  0.31209  1.0000
  N   N136      1.0  0.56531  0.34623  0.42435  1.0000
  H   H75       1.0  0.57388  0.34874  0.46768  1.0000
  H   H76       1.0  0.55788  0.32958  0.43311  1.0000
  C   C187      1.0  0.41672  0.11434  0.34590  1.0000
  C   C188      1.0  0.43528  0.05987  0.34588  1.0000
  N   N137      1.0  0.44197  0.08807  0.34917  1.0000
  C   C189      1.0  0.43373  0.11501  0.35062  1.0000
  C   C190      1.0  0.44294  0.14164  0.35836  1.0000
  O   O26       1.0  0.45683  0.14336  0.31232  1.0000
  N   N138      1.0  0.44048  0.16218  0.42415  1.0000
  H   H77       1.0  0.43195  0.15966  0.46778  1.0000
  H   H78       1.0  0.44796  0.17875  0.43288  1.0000
  N   N139      1.0  0.40951  0.42492  0.34799  1.0000
  C   C191      1.0  0.41759  0.45147  0.34857  1.0000
  H   H79       1.0  0.41124  0.47118  0.35223  1.0000
  N   N140      1.0  0.59586  0.08334  0.35044  1.0000
  C   C192      1.0  0.58776  0.05683  0.35081  1.0000
  H   H80       1.0  0.59412  0.03711  0.35342  1.0000
  C   C193      1.0  0.10525  0.47148  0.35726  1.0000
  C   C194      1.0  0.10701  0.03587  0.34056  1.0000
  N   N141      1.0  0.09286  0.02079  0.35013  1.0000
  C   C195      1.0  0.09123  0.48984  0.35822  1.0000
  C   C196      1.0  0.07564  0.47860  0.37164  1.0000
  O   O27       1.0  0.06345  0.49225  0.32796  1.0000
  N   N142      1.0  0.07195  0.45912  0.43841  1.0000
  H   H81       1.0  0.08000  0.45176  0.47997  1.0000
  H   H82       1.0  0.06087  0.45404  0.45042  1.0000
  C   C197      1.0  0.90033  0.03682  0.35530  1.0000
  C   C198      1.0  0.89862  0.47238  0.34026  1.0000
  N   N143      1.0  0.91276  0.48755  0.34867  1.0000
  C   C199      1.0  0.91437  0.01852  0.35595  1.0000
  C   C200      1.0  0.92997  0.02988  0.36783  1.0000
  O   O28       1.0  0.94209  0.01609  0.32395  1.0000
  N   N144      1.0  0.93381  0.04963  0.43367  1.0000
  H   H83       1.0  0.92585  0.05699  0.47580  1.0000
  H   H84       1.0  0.94492  0.05468  0.44494  1.0000
  C   C201      1.0  0.60530  0.22088  0.35424  1.0000
  C   C202      1.0  0.60691  0.28534  0.33948  1.0000
  N   N145      1.0  0.59280  0.27011  0.34867  1.0000
  C   C203      1.0  0.59125  0.23913  0.35594  1.0000
  C   C204      1.0  0.57570  0.22772  0.36940  1.0000
  O   O29       1.0  0.56345  0.24135  0.32616  1.0000
  N   N146      1.0  0.57209  0.20818  0.43617  1.0000
  H   H85       1.0  0.58019  0.20085  0.47750  1.0000
  H   H86       1.0  0.56103  0.20302  0.44842  1.0000
  C   C205      1.0  0.40028  0.28734  0.35237  1.0000
  C   C206      1.0  0.39873  0.22284  0.33942  1.0000
  N   N147      1.0  0.41284  0.23816  0.34738  1.0000
  C   C207      1.0  0.41436  0.26916  0.35378  1.0000
  C   C208      1.0  0.42993  0.28070  0.36563  1.0000
  O   O30       1.0  0.44210  0.26692  0.32218  1.0000
  N   N148      1.0  0.43369  0.30052  0.43143  1.0000
  H   H87       1.0  0.42569  0.30786  0.47333  1.0000
  H   H88       1.0  0.44478  0.30565  0.44289  1.0000
  N   N149      1.0  0.99420  0.27823  0.35941  1.0000
  C   C209      1.0  0.01039  0.28017  0.36356  1.0000
  H   H89       1.0  0.01549  0.30037  0.38071  1.0000
  N   N150      1.0  0.49422  0.02821  0.35856  1.0000
  C   C210      1.0  0.51043  0.03012  0.36261  1.0000
  H   H90       1.0  0.51554  0.05029  0.37978  1.0000
  C   C211      1.0  0.23679  0.63670  0.31209  1.0000
  C   C212      1.0  0.26964  0.62198  0.30911  1.0000
  N   N151      1.0  0.25790  0.60222  0.28370  1.0000
  C   C213      1.0  0.24193  0.60799  0.28092  1.0000
  C   C214      1.0  0.23193  0.58491  0.24680  1.0000
  O   O31       1.0  0.23606  0.55569  0.26155  1.0000
  N   N152      1.0  0.22034  0.59034  0.18581  1.0000
  H   H91       1.0  0.21831  0.61062  0.16317  1.0000
  H   H92       1.0  0.21464  0.57357  0.15827  1.0000
  C   C215      1.0  0.76892  0.87114  0.31221  1.0000
  C   C216      1.0  0.73608  0.88584  0.30829  1.0000
  N   N153      1.0  0.74782  0.90554  0.28265  1.0000
  C   C217      1.0  0.76380  0.89977  0.28025  1.0000
  C   C218      1.0  0.77382  0.92275  0.24576  1.0000
  O   O32       1.0  0.76963  0.95201  0.25905  1.0000
  N   N154      1.0  0.78548  0.91715  0.18533  1.0000
  H   H93       1.0  0.78752  0.89680  0.16322  1.0000
  H   H94       1.0  0.79114  0.93385  0.15711  1.0000
  N   N155      1.0  0.75751  0.65531  0.32195  1.0000
  C   C219      1.0  0.74158  0.65014  0.32606  1.0000
  H   H95       1.0  0.73376  0.66541  0.29925  1.0000
  N   N156      1.0  0.24790  0.85268  0.32094  1.0000
  C   C220      1.0  0.26383  0.85780  0.32495  1.0000
  H   H96       1.0  0.27161  0.84266  0.29720  1.0000
  N   N157      1.0  0.28733  0.52032  0.33241  1.0000
  C   C221      1.0  0.28645  0.98999  0.32598  1.0000
  H   H97       1.0  0.27687  0.98032  0.29472  1.0000
  N   N158      1.0  0.71834  0.98748  0.33301  1.0000
  C   C222      1.0  0.71914  0.51782  0.32666  1.0000
  H   H98       1.0  0.72865  0.52757  0.29488  1.0000
  N   N159      1.0  0.78821  0.77073  0.31513  1.0000
  C   C223      1.0  0.78754  0.74063  0.30213  1.0000
  H   H99       1.0  0.77794  0.73144  0.26969  1.0000
  N   N160      1.0  0.21736  0.73720  0.31403  1.0000
  C   C224      1.0  0.21796  0.76731  0.30103  1.0000
  H   H100      1.0  0.22749  0.77656  0.26814  1.0000
  C   C225      1.0  0.36136  0.64327  0.32340  1.0000
  C   C226      1.0  0.32937  0.62515  0.34578  1.0000
  N   N161      1.0  0.33337  0.64968  0.29552  1.0000
  C   C227      1.0  0.34862  0.65991  0.28308  1.0000
  C   C228      1.0  0.35043  0.68510  0.22516  1.0000
  O   O33       1.0  0.33888  0.70653  0.22482  1.0000
  N   N162      1.0  0.36189  0.68703  0.16159  1.0000
  H   H101      1.0  0.36944  0.67068  0.15150  1.0000
  H   H102      1.0  0.36197  0.70397  0.11991  1.0000
  C   C229      1.0  0.64431  0.86481  0.32071  1.0000
  C   C230      1.0  0.67631  0.88281  0.34365  1.0000
  N   N163      1.0  0.67232  0.85820  0.29366  1.0000
  C   C231      1.0  0.65706  0.84804  0.28096  1.0000
  C   C232      1.0  0.65525  0.82269  0.22366  1.0000
  O   O34       1.0  0.66683  0.80131  0.22348  1.0000
  N   N164      1.0  0.64377  0.82054  0.16024  1.0000
  H   H103      1.0  0.63625  0.83691  0.14970  1.0000
  H   H104      1.0  0.64373  0.80357  0.11870  1.0000
  N   N165      1.0  0.64854  0.61826  0.31178  1.0000
  C   C233      1.0  0.66374  0.60877  0.30081  1.0000
  H   H105      1.0  0.66565  0.58926  0.26553  1.0000
  N   N166      1.0  0.35683  0.88948  0.30880  1.0000
  C   C234      1.0  0.34159  0.89878  0.29782  1.0000
  H   H106      1.0  0.33961  0.91817  0.26208  1.0000
  C   C235      1.0  0.86111  0.89317  0.32399  1.0000
  C   C236      1.0  0.82896  0.87634  0.34733  1.0000
  N   N167      1.0  0.83325  0.89934  0.29174  1.0000
  C   C237      1.0  0.84860  0.90901  0.27884  1.0000
  C   C238      1.0  0.85075  0.93267  0.21578  1.0000
  O   O35       1.0  0.83918  0.95392  0.20841  1.0000
  N   N168      1.0  0.86266  0.93331  0.15467  1.0000
  H   H107      1.0  0.87030  0.91684  0.14950  1.0000
  H   H108      1.0  0.86297  0.94918  0.10951  1.0000
  C   C239      1.0  0.14456  0.61495  0.32183  1.0000
  C   C240      1.0  0.17671  0.63159  0.34570  1.0000
  N   N169      1.0  0.17243  0.60857  0.29018  1.0000
  C   C241      1.0  0.15707  0.59899  0.27708  1.0000
  C   C242      1.0  0.15491  0.57520  0.21444  1.0000
  O   O36       1.0  0.16650  0.55399  0.20709  1.0000
  N   N170      1.0  0.14296  0.57441  0.15350  1.0000
  H   H109      1.0  0.13536  0.59091  0.14799  1.0000
  H   H110      1.0  0.14269  0.55853  0.10835  1.0000
  N   N171      1.0  0.14800  0.87012  0.30633  1.0000
  C   C243      1.0  0.16313  0.86092  0.29161  1.0000
  H   H111      1.0  0.16489  0.84268  0.25054  1.0000
  N   N172      1.0  0.85736  0.63777  0.30388  1.0000
  C   C244      1.0  0.84220  0.64681  0.28932  1.0000
  H   H112      1.0  0.84037  0.66496  0.24803  1.0000
  N   N173      1.0  0.09563  0.67286  0.34203  1.0000
  C   C245      1.0  0.08745  0.69928  0.34322  1.0000
  H   H113      1.0  0.09379  0.71901  0.34026  1.0000
  N   N174      1.0  0.91011  0.83550  0.34374  1.0000
  C   C246      1.0  0.91829  0.80910  0.34462  1.0000
  H   H114      1.0  0.91192  0.78940  0.34189  1.0000
  C   C247      1.0  0.91634  0.64618  0.34581  1.0000
  C   C248      1.0  0.93455  0.70073  0.34680  1.0000
  N   N175      1.0  0.94139  0.67274  0.34205  1.0000
  C   C249      1.0  0.93333  0.64572  0.34071  1.0000
  C   C250      1.0  0.94273  0.61944  0.33019  1.0000
  O   O37       1.0  0.95669  0.61768  0.37554  1.0000
  N   N176      1.0  0.94037  0.59973  0.26211  1.0000
  H   H115      1.0  0.93167  0.60233  0.21964  1.0000
  H   H116      1.0  0.94796  0.58349  0.25134  1.0000
  C   C251      1.0  0.08905  0.86219  0.34954  1.0000
  C   C252      1.0  0.07078  0.80765  0.35052  1.0000
  N   N177      1.0  0.06396  0.83568  0.34737  1.0000
  C   C253      1.0  0.07205  0.86269  0.34600  1.0000
  C   C254      1.0  0.06267  0.88907  0.33749  1.0000
  O   O38       1.0  0.04892  0.89086  0.38478  1.0000
  N   N178      1.0  0.06474  0.90889  0.26937  1.0000
  H   H117      1.0  0.07321  0.90626  0.22547  1.0000
  H   H118      1.0  0.05710  0.92514  0.25984  1.0000
  N   N179      1.0  0.59544  0.92230  0.34109  1.0000
  C   C255      1.0  0.58732  0.94877  0.34232  1.0000
  H   H119      1.0  0.59369  0.96845  0.33922  1.0000
  N   N180      1.0  0.41030  0.58598  0.34307  1.0000
  C   C256      1.0  0.41842  0.55954  0.34395  1.0000
  H   H120      1.0  0.41202  0.53988  0.34110  1.0000
  C   C257      1.0  0.41609  0.89670  0.34336  1.0000
  C   C258      1.0  0.43441  0.95111  0.34535  1.0000
  N   N181      1.0  0.44120  0.92308  0.34021  1.0000
  C   C259      1.0  0.43309  0.89613  0.33841  1.0000
  C   C260      1.0  0.44246  0.86983  0.32741  1.0000
  O   O39       1.0  0.45639  0.86788  0.37292  1.0000
  N   N182      1.0  0.44010  0.85034  0.25876  1.0000
  H   H121      1.0  0.43143  0.85310  0.21624  1.0000
  H   H122      1.0  0.44768  0.83409  0.24771  1.0000
  C   C261      1.0  0.58930  0.61159  0.34718  1.0000
  C   C262      1.0  0.57092  0.55720  0.34908  1.0000
  N   N183      1.0  0.56415  0.58527  0.34553  1.0000
  C   C263      1.0  0.57229  0.61221  0.34375  1.0000
  C   C264      1.0  0.56295  0.63861  0.33477  1.0000
  O   O40       1.0  0.54923  0.64060  0.38223  1.0000
  N   N184      1.0  0.56500  0.65821  0.26607  1.0000
  H   H123      1.0  0.57345  0.65543  0.22211  1.0000
  H   H124      1.0  0.55737  0.67447  0.25626  1.0000
  N   N185      1.0  0.11909  0.98713  0.34816  1.0000
  C   C265      1.0  0.12071  0.51717  0.33991  1.0000
  H   H125      1.0  0.13208  0.52526  0.33396  1.0000
  N   N186      1.0  0.88649  0.52108  0.34732  1.0000
  C   C266      1.0  0.88489  0.99102  0.33990  1.0000
  H   H126      1.0  0.87352  0.98287  0.33481  1.0000
  N   N187      1.0  0.61911  0.73668  0.34559  1.0000
  C   C267      1.0  0.62066  0.76676  0.33831  1.0000
  H   H127      1.0  0.63201  0.77495  0.33257  1.0000
  N   N188      1.0  0.38648  0.77146  0.34492  1.0000
  C   C268      1.0  0.38495  0.74136  0.33855  1.0000
  H   H128      1.0  0.37360  0.73311  0.33371  1.0000
  C   C269      1.0  0.98587  0.75271  0.33762  1.0000
  C   C270      1.0  0.01978  0.75419  0.34661  1.0000
  N   N189      1.0  0.01151  0.72881  0.32411  1.0000
  C   C271      1.0  0.99530  0.72658  0.31790  1.0000
  C   C272      1.0  0.98954  0.69852  0.28554  1.0000
  O   O41       1.0  0.99655  0.67275  0.31493  1.0000
  N   N190      1.0  0.97980  0.69652  0.21346  1.0000
  H   H129      1.0  0.97592  0.71450  0.18274  1.0000
  H   H130      1.0  0.97708  0.67683  0.18856  1.0000
  C   C273      1.0  0.48587  0.50272  0.33682  1.0000
  C   C274      1.0  0.51978  0.50410  0.34570  1.0000
  N   N191      1.0  0.51148  0.97874  0.32331  1.0000
  C   C275      1.0  0.49527  0.97656  0.31709  1.0000
  C   C276      1.0  0.48947  0.94849  0.28507  1.0000
  O   O42       1.0  0.49650  0.92271  0.31422  1.0000
  N   N192      1.0  0.47974  0.44643  0.21300  1.0000
  H   H131      1.0  0.47589  0.46439  0.18206  1.0000
  H   H132      1.0  0.47705  0.42673  0.18808  1.0000
  C   C277      1.0  0.31363  0.61289  0.34612  1.0000
  N   N193      1.0  0.29947  0.62713  0.32608  1.0000
  C   C278      1.0  0.28537  0.61111  0.32298  1.0000
  N   N194      1.0  0.28590  0.58116  0.34112  1.0000
  C   C279      1.0  0.29947  0.56660  0.36226  1.0000
  N   N195      1.0  0.31303  0.58275  0.36209  1.0000
  C   C280      1.0  0.69207  0.89496  0.34466  1.0000
  N   N196      1.0  0.70624  0.88073  0.32450  1.0000
  C   C281      1.0  0.72035  0.89670  0.32206  1.0000
  N   N197      1.0  0.71986  0.92660  0.34108  1.0000
  C   C282      1.0  0.70629  0.94113  0.36241  1.0000
  N   N198      1.0  0.69272  0.92504  0.36150  1.0000
  C   C283      1.0  0.69204  0.61253  0.34606  1.0000
  N   N199      1.0  0.70639  0.62762  0.35162  1.0000
  C   C284      1.0  0.72051  0.61185  0.35938  1.0000
  N   N200      1.0  0.71974  0.58137  0.36055  1.0000
  C   C285      1.0  0.70597  0.56610  0.35593  1.0000
  N   N201      1.0  0.69231  0.58184  0.34981  1.0000
  C   C286      1.0  0.31339  0.89512  0.34448  1.0000
  N   N202      1.0  0.29902  0.88009  0.35047  1.0000
  C   C287      1.0  0.28494  0.89591  0.35891  1.0000
  N   N203      1.0  0.28573  0.92639  0.36011  1.0000
  C   C288      1.0  0.29952  0.94159  0.35506  1.0000
  N   N204      1.0  0.31315  0.92580  0.34838  1.0000
  C   C289      1.0  0.81336  0.86356  0.34630  1.0000
  N   N205      1.0  0.79897  0.87739  0.32885  1.0000
  C   C290      1.0  0.78496  0.86103  0.32588  1.0000
  N   N206      1.0  0.78610  0.83082  0.33914  1.0000
  C   C291      1.0  0.79989  0.81644  0.35607  1.0000
  N   N207      1.0  0.81324  0.83315  0.35740  1.0000
  C   C292      1.0  0.19233  0.64433  0.34502  1.0000
  N   N208      1.0  0.20674  0.63050  0.32787  1.0000
  C   C293      1.0  0.22075  0.64685  0.32520  1.0000
  N   N209      1.0  0.21961  0.67707  0.33851  1.0000
  C   C294      1.0  0.20581  0.69142  0.35514  1.0000
  N   N210      1.0  0.19245  0.67473  0.35619  1.0000
  C   C295      1.0  0.19153  0.86290  0.33455  1.0000
  N   N211      1.0  0.20600  0.87736  0.34315  1.0000
  C   C296      1.0  0.22009  0.86128  0.34251  1.0000
  N   N212      1.0  0.21907  0.83088  0.33526  1.0000
  C   C297      1.0  0.20517  0.81611  0.32829  1.0000
  N   N213      1.0  0.19162  0.83226  0.32968  1.0000
  C   C298      1.0  0.81389  0.64490  0.33363  1.0000
  N   N214      1.0  0.79942  0.63048  0.34234  1.0000
  C   C299      1.0  0.78534  0.64660  0.34234  1.0000
  N   N215      1.0  0.78638  0.67701  0.33569  1.0000
  C   C300      1.0  0.80029  0.69175  0.32864  1.0000
  N   N216      1.0  0.81383  0.67554  0.32936  1.0000
  C   C301      1.0  0.10043  0.62012  0.33964  1.0000
  N   N217      1.0  0.09702  0.58958  0.34041  1.0000
  C   C302      1.0  0.10872  0.56785  0.33489  1.0000
  N   N218      1.0  0.12391  0.57812  0.32662  1.0000
  C   C303      1.0  0.12815  0.60737  0.32346  1.0000
  N   N219      1.0  0.11620  0.62785  0.33233  1.0000
  C   C304      1.0  0.90527  0.88818  0.34088  1.0000
  N   N220      1.0  0.90865  0.91873  0.34091  1.0000
  C   C305      1.0  0.89693  0.94039  0.33538  1.0000
  N   N221      1.0  0.88174  0.93005  0.32775  1.0000
  C   C306      1.0  0.87752  0.90078  0.32524  1.0000
  N   N222      1.0  0.88950  0.88037  0.33418  1.0000
  C   C307      1.0  0.90545  0.62146  0.35035  1.0000
  N   N223      1.0  0.90936  0.59122  0.35253  1.0000
  C   C308      1.0  0.89806  0.56878  0.35718  1.0000
  N   N224      1.0  0.88259  0.57818  0.36064  1.0000
  C   C309      1.0  0.87787  0.60727  0.36035  1.0000
  N   N225      1.0  0.88956  0.62836  0.35356  1.0000
  C   C310      1.0  0.09998  0.88686  0.35377  1.0000
  N   N226      1.0  0.09613  0.91713  0.35581  1.0000
  C   C311      1.0  0.10747  0.93951  0.35987  1.0000
  N   N227      1.0  0.12292  0.93002  0.36292  1.0000
  C   C312      1.0  0.12759  0.90090  0.36287  1.0000
  N   N228      1.0  0.11587  0.87988  0.35651  1.0000
  C   C313      1.0  0.60018  0.86957  0.33880  1.0000
  N   N229      1.0  0.59681  0.83901  0.33971  1.0000
  C   C314      1.0  0.60854  0.81734  0.33432  1.0000
  N   N230      1.0  0.62371  0.82771  0.32617  1.0000
  C   C315      1.0  0.62793  0.85697  0.32269  1.0000
  N   N231      1.0  0.61593  0.87734  0.33127  1.0000
  C   C316      1.0  0.40553  0.63865  0.34035  1.0000
  N   N232      1.0  0.40888  0.66922  0.34047  1.0000
  C   C317      1.0  0.39712  0.69083  0.33511  1.0000
  N   N233      1.0  0.38195  0.68039  0.32770  1.0000
  C   C318      1.0  0.37774  0.65112  0.32493  1.0000
  N   N234      1.0  0.38977  0.63081  0.33353  1.0000
  C   C319      1.0  0.40518  0.87201  0.34735  1.0000
  N   N235      1.0  0.40916  0.84181  0.34936  1.0000
  C   C320      1.0  0.39793  0.81928  0.35354  1.0000
  N   N236      1.0  0.38245  0.82857  0.35660  1.0000
  C   C321      1.0  0.37761  0.85760  0.35658  1.0000
  N   N237      1.0  0.38926  0.87881  0.35054  1.0000
  C   C322      1.0  0.60025  0.63624  0.35085  1.0000
  N   N238      1.0  0.59633  0.66647  0.35264  1.0000
  C   C323      1.0  0.60760  0.68894  0.35618  1.0000
  N   N239      1.0  0.62308  0.67956  0.35889  1.0000
  C   C324      1.0  0.62787  0.65049  0.35918  1.0000
  N   N240      1.0  0.61616  0.62935  0.35363  1.0000
  C   C325      1.0  0.06167  0.78057  0.35007  1.0000
  N   N241      1.0  0.04541  0.78011  0.34983  1.0000
  C   C326      1.0  0.03685  0.75374  0.34847  1.0000
  N   N242      1.0  0.04517  0.72699  0.34703  1.0000
  C   C327      1.0  0.06147  0.72596  0.34731  1.0000
  N   N243      1.0  0.06910  0.75318  0.34875  1.0000
  C   C328      1.0  0.94367  0.72776  0.34627  1.0000
  N   N244      1.0  0.95989  0.72798  0.34354  1.0000
  C   C329      1.0  0.96873  0.75397  0.34096  1.0000
  N   N245      1.0  0.96055  0.78093  0.34310  1.0000
  C   C330      1.0  0.94424  0.78232  0.34574  1.0000
  N   N246      1.0  0.93642  0.75527  0.34698  1.0000
  C   C331      1.0  0.56173  0.53022  0.34893  1.0000
  N   N247      1.0  0.54547  0.52989  0.34873  1.0000
  C   C332      1.0  0.53684  0.50357  0.34758  1.0000
  N   N248      1.0  0.54511  0.97676  0.34629  1.0000
  C   C333      1.0  0.56140  0.97562  0.34654  1.0000
  N   N249      1.0  0.56910  0.50277  0.34777  1.0000
  C   C334      1.0  0.44361  0.97804  0.34516  1.0000
  N   N250      1.0  0.45983  0.97813  0.34249  1.0000
  C   C335      1.0  0.46873  0.00406  0.34016  1.0000
  N   N251      1.0  0.46061  0.53107  0.34247  1.0000
  C   C336      1.0  0.44431  0.53258  0.34506  1.0000
  N   N252      1.0  0.43643  0.00561  0.34607  1.0000
  N   N253      1.0  0.24867  0.65641  0.33654  1.0000
  C   C337      1.0  0.26458  0.65097  0.33461  1.0000
  H   H133      1.0  0.27236  0.66686  0.35844  1.0000
  N   N254      1.0  0.75703  0.85149  0.33687  1.0000
  C   C338      1.0  0.74113  0.85688  0.33433  1.0000
  H   H134      1.0  0.73335  0.84108  0.35875  1.0000
  C   C339      1.0  0.76931  0.63630  0.35182  1.0000
  C   C340      1.0  0.73646  0.62252  0.36222  1.0000
  N   N255      1.0  0.74820  0.60355  0.39238  1.0000
  C   C341      1.0  0.76419  0.60878  0.39110  1.0000
  C   C342      1.0  0.77407  0.58679  0.43184  1.0000
  O   O43       1.0  0.76997  0.55726  0.42374  1.0000
  N   N256      1.0  0.78547  0.59390  0.49246  1.0000
  H   H135      1.0  0.78743  0.61473  0.51039  1.0000
  H   H136      1.0  0.79107  0.57794  0.52457  1.0000
  C   C343      1.0  0.23612  0.87159  0.35175  1.0000
  C   C344      1.0  0.26899  0.88528  0.36192  1.0000
  N   N257      1.0  0.25728  0.90414  0.39305  1.0000
  C   C345      1.0  0.24129  0.89892  0.39201  1.0000
  C   C346      1.0  0.23143  0.92074  0.43376  1.0000
  O   O44       1.0  0.23559  0.95029  0.42725  1.0000
  N   N258      1.0  0.22005  0.91340  0.49423  1.0000
  H   H137      1.0  0.21812  0.89249  0.51152  1.0000
  H   H138      1.0  0.21454  0.92922  0.52743  1.0000
  C   C347      1.0  0.29965  0.53517  0.37205  1.0000
  C   C348      1.0  0.29939  0.97291  0.35831  1.0000
  N   N259      1.0  0.31163  0.98745  0.39891  1.0000
  C   C349      1.0  0.31240  0.51791  0.40868  1.0000
  C   C350      1.0  0.32523  0.52909  0.46063  1.0000
  O   O45       1.0  0.33954  0.51500  0.45502  1.0000
  N   N260      1.0  0.32307  0.54917  0.52802  1.0000
  H   H139      1.0  0.31261  0.55751  0.54169  1.0000
  H   H140      1.0  0.33191  0.55449  0.56715  1.0000
  C   C351      1.0  0.70611  0.97253  0.37314  1.0000
  C   C352      1.0  0.70618  0.53479  0.35923  1.0000
  N   N261      1.0  0.69401  0.52013  0.40020  1.0000
  C   C353      1.0  0.69335  0.98967  0.41011  1.0000
  C   C354      1.0  0.68054  0.97833  0.46200  1.0000
  O   O46       1.0  0.66624  0.99247  0.45736  1.0000
  N   N262      1.0  0.68271  0.95795  0.52860  1.0000
  H   H141      1.0  0.69317  0.94958  0.54192  1.0000
  H   H142      1.0  0.67389  0.95256  0.56784  1.0000
  C   C355      1.0  0.80038  0.78488  0.35835  1.0000
  C   C356      1.0  0.80047  0.72307  0.33205  1.0000
  N   N263      1.0  0.81256  0.73694  0.37618  1.0000
  C   C357      1.0  0.81324  0.76715  0.39138  1.0000
  C   C358      1.0  0.82596  0.77741  0.44585  1.0000
  O   O47       1.0  0.84035  0.76374  0.43797  1.0000
  N   N264      1.0  0.82364  0.79585  0.51707  1.0000
  H   H143      1.0  0.81312  0.80362  0.53214  1.0000
  H   H144      1.0  0.83241  0.80038  0.55754  1.0000
  C   C359      1.0  0.20529  0.72298  0.35789  1.0000
  C   C360      1.0  0.20503  0.78478  0.33140  1.0000
  N   N265      1.0  0.19302  0.77082  0.37602  1.0000
  C   C361      1.0  0.19243  0.74062  0.39135  1.0000
  C   C362      1.0  0.17977  0.73023  0.44601  1.0000
  O   O48       1.0  0.16537  0.74393  0.43905  1.0000
  N   N266      1.0  0.18215  0.71165  0.51685  1.0000
  H   H145      1.0  0.19269  0.70391  0.53160  1.0000
  H   H146      1.0  0.17342  0.70711  0.55764  1.0000
  N   N267      1.0  0.35738  0.61907  0.37435  1.0000
  C   C363      1.0  0.34224  0.60964  0.38705  1.0000
  H   H147      1.0  0.34057  0.59091  0.42591  1.0000
  N   N268      1.0  0.64830  0.88901  0.37165  1.0000
  C   C364      1.0  0.66343  0.89840  0.38460  1.0000
  H   H148      1.0  0.66508  0.91714  0.42340  1.0000
  C   C365      1.0  0.64438  0.64328  0.35904  1.0000
  C   C366      1.0  0.67644  0.62513  0.34056  1.0000
  N   N269      1.0  0.67232  0.65036  0.38731  1.0000
  C   C367      1.0  0.65703  0.66065  0.39747  1.0000
  C   C368      1.0  0.65510  0.68632  0.45333  1.0000
  O   O49       1.0  0.66638  0.70824  0.45053  1.0000
  N   N270      1.0  0.64405  0.68799  0.51924  1.0000
  H   H149      1.0  0.63685  0.67127  0.53177  1.0000
  H   H150      1.0  0.64394  0.70522  0.55987  1.0000
  C   C369      1.0  0.36109  0.86470  0.35685  1.0000
  C   C370      1.0  0.32896  0.88247  0.33848  1.0000
  N   N271      1.0  0.33319  0.85746  0.38597  1.0000
  C   C371      1.0  0.34851  0.84735  0.39609  1.0000
  C   C372      1.0  0.35055  0.82181  0.45237  1.0000
  O   O50       1.0  0.33927  0.79986  0.45077  1.0000
  N   N272      1.0  0.36168  0.82033  0.51786  1.0000
  H   H151      1.0  0.36885  0.83715  0.52988  1.0000
  H   H152      1.0  0.36182  0.80326  0.55909  1.0000
  N   N273      1.0  0.85683  0.87059  0.38044  1.0000
  C   C373      1.0  0.84158  0.86189  0.39397  1.0000
  H   H153      1.0  0.83962  0.84431  0.43691  1.0000
  N   N274      1.0  0.14885  0.63746  0.37850  1.0000
  C   C374      1.0  0.16410  0.64607  0.39232  1.0000
  H   H154      1.0  0.16607  0.66364  0.43530  1.0000
  C   C375      1.0  0.14404  0.89349  0.36082  1.0000
  C   C376      1.0  0.17597  0.87578  0.33496  1.0000
  N   N275      1.0  0.17204  0.89946  0.38888  1.0000
  C   C377      1.0  0.15680  0.90951  0.40302  1.0000
  C   C378      1.0  0.15500  0.93348  0.46535  1.0000
  O   O51       1.0  0.16660  0.95475  0.46981  1.0000
  N   N276      1.0  0.14359  0.93406  0.52949  1.0000
  H   H155      1.0  0.13608  0.91749  0.53696  1.0000
  H   H156      1.0  0.14358  0.95005  0.57436  1.0000
  C   C379      1.0  0.86142  0.61459  0.35886  1.0000
  C   C380      1.0  0.82943  0.63196  0.33341  1.0000
  N   N277      1.0  0.83345  0.60845  0.38774  1.0000
  C   C381      1.0  0.84873  0.59856  0.40167  1.0000
  C   C382      1.0  0.85064  0.57466  0.46415  1.0000
  O   O52       1.0  0.83905  0.55339  0.46953  1.0000
  N   N278      1.0  0.86213  0.57419  0.52787  1.0000
  H   H157      1.0  0.86958  0.59087  0.53500  1.0000
  H   H158      1.0  0.86217  0.55834  0.57315  1.0000
  C   C383      1.0  0.08926  0.64446  0.34533  1.0000
  C   C384      1.0  0.07061  0.69882  0.34641  1.0000
  N   N279      1.0  0.06398  0.67058  0.34995  1.0000
  C   C385      1.0  0.07225  0.64370  0.35070  1.0000
  C   C386      1.0  0.06306  0.61703  0.35860  1.0000
  O   O53       1.0  0.04925  0.61519  0.31197  1.0000
  N   N280      1.0  0.06552  0.59663  0.42477  1.0000
  H   H159      1.0  0.07406  0.59918  0.46832  1.0000
  H   H160      1.0  0.05811  0.57995  0.43331  1.0000
  C   C387      1.0  0.91648  0.86390  0.34645  1.0000
  C   C388      1.0  0.93515  0.80953  0.34644  1.0000
  N   N281      1.0  0.94178  0.83778  0.34958  1.0000
  C   C389      1.0  0.93350  0.86466  0.35100  1.0000
  C   C390      1.0  0.94268  0.89134  0.35852  1.0000
  O   O54       1.0  0.95652  0.89314  0.31213  1.0000
  N   N282      1.0  0.94024  0.91185  0.42444  1.0000
  H   H161      1.0  0.93175  0.90929  0.46825  1.0000
  H   H162      1.0  0.94770  0.92847  0.43299  1.0000
  N   N283      1.0  0.90972  0.67437  0.35004  1.0000
  C   C391      1.0  0.91773  0.70098  0.35012  1.0000
  H   H163      1.0  0.91134  0.72064  0.35355  1.0000
  N   N284      1.0  0.09566  0.83396  0.35239  1.0000
  C   C392      1.0  0.08762  0.80739  0.35229  1.0000
  H   H164      1.0  0.09402  0.78772  0.35465  1.0000
  C   C393      1.0  0.58903  0.89394  0.34452  1.0000
  C   C394      1.0  0.57048  0.94841  0.34568  1.0000
  N   N285      1.0  0.56380  0.92021  0.34940  1.0000
  C   C395      1.0  0.57203  0.89327  0.35014  1.0000
  C   C396      1.0  0.56281  0.86666  0.35831  1.0000
  O   O55       1.0  0.54895  0.86488  0.31209  1.0000
  N   N286      1.0  0.56531  0.84622  0.42435  1.0000
  H   H165      1.0  0.57388  0.84874  0.46768  1.0000
  H   H166      1.0  0.55788  0.82958  0.43310  1.0000
  C   C397      1.0  0.41672  0.61434  0.34590  1.0000
  C   C398      1.0  0.43528  0.55987  0.34588  1.0000
  N   N287      1.0  0.44197  0.58807  0.34917  1.0000
  C   C399      1.0  0.43373  0.61501  0.35062  1.0000
  C   C400      1.0  0.44294  0.64164  0.35837  1.0000
  O   O56       1.0  0.45683  0.64336  0.31232  1.0000
  N   N288      1.0  0.44048  0.66218  0.42416  1.0000
  H   H167      1.0  0.43195  0.65966  0.46779  1.0000
  H   H168      1.0  0.44796  0.67875  0.43290  1.0000
  N   N289      1.0  0.40951  0.92492  0.34799  1.0000
  C   C401      1.0  0.41759  0.95147  0.34857  1.0000
  H   H169      1.0  0.41124  0.97118  0.35223  1.0000
  N   N290      1.0  0.59586  0.58334  0.35044  1.0000
  C   C402      1.0  0.58776  0.55683  0.35081  1.0000
  H   H170      1.0  0.59412  0.53711  0.35342  1.0000
  C   C403      1.0  0.10525  0.97148  0.35726  1.0000
  C   C404      1.0  0.10701  0.53587  0.34056  1.0000
  N   N291      1.0  0.09286  0.52079  0.35013  1.0000
  C   C405      1.0  0.09123  0.98984  0.35822  1.0000
  C   C406      1.0  0.07564  0.97860  0.37164  1.0000
  O   O57       1.0  0.06345  0.99225  0.32796  1.0000
  N   N292      1.0  0.07195  0.95911  0.43841  1.0000
  H   H171      1.0  0.08000  0.95176  0.47997  1.0000
  H   H172      1.0  0.06087  0.95404  0.45042  1.0000
  C   C407      1.0  0.90033  0.53682  0.35530  1.0000
  C   C408      1.0  0.89862  0.97238  0.34026  1.0000
  N   N293      1.0  0.91276  0.98755  0.34867  1.0000
  C   C409      1.0  0.91437  0.51852  0.35595  1.0000
  C   C410      1.0  0.92997  0.52989  0.36783  1.0000
  O   O58       1.0  0.94209  0.51609  0.32395  1.0000
  N   N294      1.0  0.93381  0.54963  0.43367  1.0000
  H   H173      1.0  0.92585  0.55699  0.47580  1.0000
  H   H174      1.0  0.94492  0.55468  0.44494  1.0000
  C   C411      1.0  0.60530  0.72088  0.35424  1.0000
  C   C412      1.0  0.60691  0.78534  0.33948  1.0000
  N   N295      1.0  0.59280  0.77011  0.34867  1.0000
  C   C413      1.0  0.59125  0.73913  0.35594  1.0000
  C   C414      1.0  0.57570  0.72772  0.36940  1.0000
  O   O59       1.0  0.56345  0.74135  0.32616  1.0000
  N   N296      1.0  0.57209  0.70818  0.43617  1.0000
  H   H175      1.0  0.58019  0.70085  0.47750  1.0000
  H   H176      1.0  0.56103  0.70302  0.44842  1.0000
  C   C415      1.0  0.40028  0.78734  0.35238  1.0000
  C   C416      1.0  0.39873  0.72284  0.33942  1.0000
  N   N297      1.0  0.41284  0.73816  0.34738  1.0000
  C   C417      1.0  0.41436  0.76916  0.35377  1.0000
  C   C418      1.0  0.42993  0.78070  0.36562  1.0000
  O   O60       1.0  0.44210  0.76692  0.32217  1.0000
  N   N298      1.0  0.43369  0.80052  0.43141  1.0000
  H   H177      1.0  0.42569  0.80786  0.47333  1.0000
  H   H178      1.0  0.44478  0.80565  0.44287  1.0000
  N   N299      1.0  0.99420  0.77823  0.35941  1.0000
  C   C419      1.0  0.01039  0.78017  0.36356  1.0000
  H   H179      1.0  0.01549  0.80037  0.38071  1.0000
  N   N300      1.0  0.49422  0.52821  0.35856  1.0000
  C   C420      1.0  0.51043  0.53012  0.36261  1.0000
  H   H180      1.0  0.51554  0.55029  0.37978  1.0000
