data_image0
_chemical_formula_structural       C4HC4H2NO2C4HC4H2NO2C4H4C4H4C4H4C4H4C4HC4H2NO2C4HC4H2NO2C4HC4H2NO2C4HC4H2NO2C4H4C4H4C4H4C4H4C4HC4H2NO2C4HC4H2NO2C4HC4H2NO2C4HC4H2NO2C6H3C6H3C6H3C6H3C6H3C6H3C6H3C6H3C6H3C6H3C6H3C6H3C4H4C4H4C4HC4H2NO2C4HC4H2NO2C4HC4H2NO2C4HC4H2NO2C4H4C4H4C4H4C4H4C4HC4H2NO2C4HC4H2NO2C4HC4H2NO2C4HC4H2NO2C4H4C4H4C4H4C4H4
_chemical_formula_sum              "C288 H162 N18 O36"
_cell_length_a       51.7916
_cell_length_b       51.6335
_cell_length_c       14.8807
_cell_angle_alpha    90
_cell_angle_beta     90
_cell_angle_gamma    90.1783

_space_group_name_H-M_alt    "P 1"
_space_group_IT_number       1

loop_
  _space_group_symop_operation_xyz
  'x, y, z'

loop_
  _atom_site_type_symbol
  _atom_site_label
  _atom_site_symmetry_multiplicity
  _atom_site_fract_x
  _atom_site_fract_y
  _atom_site_fract_z
  _atom_site_occupancy
  C   C1        1.0  0.95334  0.55180  0.33871  1.0000
  C   C2        1.0  0.99251  0.51266  0.33625  1.0000
  C   C3        1.0  0.97510  0.51519  0.26294  1.0000
  C   C4        1.0  0.95561  0.53446  0.26562  1.0000
  H   H1        1.0  0.94317  0.53605  0.21245  1.0000
  C   C5        1.0  0.01226  0.49336  0.33767  1.0000
  C   C6        1.0  0.05156  0.45419  0.33939  1.0000
  C   C7        1.0  0.05206  0.47463  0.27587  1.0000
  C   C8        1.0  0.03266  0.49374  0.27452  1.0000
  H   H2        1.0  0.06634  0.47548  0.22846  1.0000
  H   H3        1.0  0.03365  0.50810  0.22725  1.0000
  N   N1        1.0  0.97714  0.49805  0.18900  1.0000
  O   O1        1.0  0.98155  0.51013  0.11727  1.0000
  O   O2        1.0  0.95693  0.48482  0.17916  1.0000
  C   C9        1.0  0.45316  0.95304  0.33812  1.0000
  C   C10       1.0  0.49264  0.99209  0.33571  1.0000
  C   C11       1.0  0.49003  0.97454  0.26266  1.0000
  C   C12       1.0  0.47059  0.95510  0.26533  1.0000
  H   H4        1.0  0.46895  0.94255  0.21237  1.0000
  C   C13       1.0  0.51208  0.01180  0.33704  1.0000
  C   C14       1.0  0.55146  0.05112  0.33867  1.0000
  C   C15       1.0  0.53111  0.05165  0.27509  1.0000
  C   C16       1.0  0.51189  0.03223  0.27376  1.0000
  H   H5        1.0  0.53037  0.06597  0.22767  1.0000
  H   H6        1.0  0.49758  0.03326  0.22649  1.0000
  N   N2        1.0  0.50726  0.97637  0.18902  1.0000
  O   O3        1.0  0.49539  0.98076  0.11697  1.0000
  O   O4        1.0  0.52024  0.95603  0.17982  1.0000
  C   C17       1.0  0.06085  0.23775  0.27450  1.0000
  C   C18       1.0  0.06570  0.26459  0.27516  1.0000
  C   C19       1.0  0.05259  0.32398  0.28403  1.0000
  C   C20       1.0  0.05852  0.35066  0.28361  1.0000
  H   H7        1.0  0.03978  0.31692  0.23768  1.0000
  H   H8        1.0  0.05018  0.36216  0.23581  1.0000
  H   H9        1.0  0.06680  0.22708  0.22042  1.0000
  H   H10       1.0  0.07540  0.27262  0.22204  1.0000
  C   C21       1.0  0.94411  0.76793  0.27640  1.0000
  C   C22       1.0  0.93919  0.74110  0.27710  1.0000
  C   C23       1.0  0.95234  0.68172  0.28628  1.0000
  C   C24       1.0  0.94643  0.65504  0.28575  1.0000
  H   H11       1.0  0.96524  0.68878  0.24022  1.0000
  H   H12       1.0  0.95486  0.64355  0.23811  1.0000
  H   H13       1.0  0.93821  0.77860  0.22225  1.0000
  H   H14       1.0  0.92949  0.73308  0.22394  1.0000
  C   C25       1.0  0.76730  0.06108  0.27463  1.0000
  C   C26       1.0  0.74056  0.06593  0.27520  1.0000
  C   C27       1.0  0.68125  0.05266  0.28345  1.0000
  C   C28       1.0  0.65468  0.05854  0.28307  1.0000
  H   H15       1.0  0.68824  0.03986  0.23696  1.0000
  H   H16       1.0  0.64319  0.05022  0.23510  1.0000
  H   H17       1.0  0.77800  0.06717  0.22077  1.0000
  H   H18       1.0  0.73265  0.07577  0.22227  1.0000
  C   C29       1.0  0.23772  0.94482  0.27495  1.0000
  C   C30       1.0  0.26441  0.93974  0.27571  1.0000
  C   C31       1.0  0.32372  0.95233  0.28588  1.0000
  C   C32       1.0  0.35025  0.94628  0.28536  1.0000
  H   H19       1.0  0.31685  0.96540  0.24013  1.0000
  H   H20       1.0  0.36181  0.95479  0.23799  1.0000
  H   H21       1.0  0.22707  0.93921  0.22035  1.0000
  H   H22       1.0  0.27235  0.93025  0.22207  1.0000
  C   C33       1.0  0.45765  0.72514  0.33451  1.0000
  C   C34       1.0  0.44663  0.77940  0.33138  1.0000
  C   C35       1.0  0.45906  0.76748  0.25703  1.0000
  C   C36       1.0  0.46469  0.74061  0.26004  1.0000
  H   H23       1.0  0.47364  0.73220  0.20613  1.0000
  C   C37       1.0  0.44052  0.80634  0.33203  1.0000
  C   C38       1.0  0.42790  0.86038  0.33404  1.0000
  C   C39       1.0  0.41602  0.84316  0.27241  1.0000
  C   C40       1.0  0.42236  0.81664  0.27092  1.0000
  H   H24       1.0  0.40279  0.84987  0.22706  1.0000
  H   H25       1.0  0.41330  0.80481  0.22556  1.0000
  N   N3        1.0  0.46604  0.78271  0.18166  1.0000
  O   O5        1.0  0.45503  0.77483  0.11149  1.0000
  O   O6        1.0  0.49003  0.78256  0.16898  1.0000
  C   C41       1.0  0.54745  0.27922  0.33586  1.0000
  C   C42       1.0  0.55825  0.22491  0.33316  1.0000
  C   C43       1.0  0.54515  0.23668  0.25993  1.0000
  C   C44       1.0  0.53964  0.26357  0.26275  1.0000
  H   H26       1.0  0.53021  0.27186  0.20961  1.0000
  C   C45       1.0  0.56431  0.19797  0.33381  1.0000
  C   C46       1.0  0.57685  0.14394  0.33556  1.0000
  C   C47       1.0  0.58837  0.16106  0.27281  1.0000
  C   C48       1.0  0.58207  0.18759  0.27145  1.0000
  H   H27       1.0  0.60132  0.15428  0.22660  1.0000
  H   H28       1.0  0.59086  0.19936  0.22526  1.0000
  N   N4        1.0  0.53740  0.22127  0.18590  1.0000
  O   O7        1.0  0.54775  0.22892  0.11423  1.0000
  O   O8        1.0  0.51331  0.22145  0.17603  1.0000
  C   C49       1.0  0.72569  0.54782  0.33412  1.0000
  C   C50       1.0  0.77997  0.55837  0.33105  1.0000
  C   C51       1.0  0.76792  0.54587  0.25694  1.0000
  C   C52       1.0  0.74105  0.54046  0.25993  1.0000
  H   H29       1.0  0.73257  0.53143  0.20621  1.0000
  C   C53       1.0  0.80691  0.56430  0.33160  1.0000
  C   C54       1.0  0.86092  0.57669  0.33349  1.0000
  C   C55       1.0  0.84390  0.58859  0.27162  1.0000
  C   C56       1.0  0.81739  0.58238  0.27020  1.0000
  H   H30       1.0  0.85073  0.60182  0.22621  1.0000
  H   H31       1.0  0.80570  0.59149  0.22472  1.0000
  N   N5        1.0  0.78304  0.53858  0.18183  1.0000
  O   O9        1.0  0.77538  0.54955  0.11134  1.0000
  O   O10       1.0  0.78255  0.51450  0.16974  1.0000
  C   C57       1.0  0.27943  0.45670  0.33539  1.0000
  C   C58       1.0  0.22507  0.44658  0.33270  1.0000
  C   C59       1.0  0.23698  0.45990  0.26008  1.0000
  C   C60       1.0  0.26389  0.46507  0.26293  1.0000
  H   H32       1.0  0.27228  0.47468  0.21024  1.0000
  C   C61       1.0  0.19811  0.44082  0.33322  1.0000
  C   C62       1.0  0.14404  0.42879  0.33476  1.0000
  C   C63       1.0  0.16090  0.41725  0.27153  1.0000
  C   C64       1.0  0.18744  0.42331  0.27025  1.0000
  H   H33       1.0  0.15393  0.40443  0.22500  1.0000
  H   H34       1.0  0.19902  0.41450  0.22373  1.0000
  N   N6        1.0  0.22170  0.46822  0.18669  1.0000
  O   O11       1.0  0.22907  0.45809  0.11434  1.0000
  O   O12       1.0  0.22233  0.49242  0.17824  1.0000
  C   C65       1.0  0.07959  0.11671  0.26727  1.0000
  C   C66       1.0  0.09703  0.09594  0.27150  1.0000
  C   C67       1.0  0.14670  0.06283  0.28821  1.0000
  C   C68       1.0  0.15931  0.03868  0.29038  1.0000
  H   H35       1.0  0.15087  0.07546  0.23721  1.0000
  H   H36       1.0  0.17199  0.03422  0.24002  1.0000
  H   H37       1.0  0.06730  0.11789  0.21355  1.0000
  H   H38       1.0  0.09675  0.08252  0.22088  1.0000
  C   C69       1.0  0.92547  0.88877  0.26821  1.0000
  C   C70       1.0  0.90808  0.90958  0.27215  1.0000
  C   C71       1.0  0.85850  0.94279  0.28888  1.0000
  C   C72       1.0  0.84587  0.96693  0.29061  1.0000
  H   H39       1.0  0.85424  0.93002  0.23839  1.0000
  H   H40       1.0  0.83311  0.97126  0.24036  1.0000
  H   H41       1.0  0.93767  0.88741  0.21429  1.0000
  H   H42       1.0  0.90829  0.92287  0.22108  1.0000
  C   C73       1.0  0.88765  0.08008  0.26571  1.0000
  C   C74       1.0  0.90866  0.09734  0.26979  1.0000
  C   C75       1.0  0.94262  0.14670  0.28775  1.0000
  C   C76       1.0  0.96688  0.15914  0.28967  1.0000
  H   H43       1.0  0.92988  0.15129  0.23770  1.0000
  H   H44       1.0  0.97132  0.17210  0.23997  1.0000
  H   H45       1.0  0.88607  0.06794  0.21159  1.0000
  H   H46       1.0  0.92182  0.09714  0.21844  1.0000
  C   C77       1.0  0.11706  0.92597  0.26751  1.0000
  C   C78       1.0  0.09608  0.90867  0.27156  1.0000
  C   C79       1.0  0.06234  0.85912  0.28881  1.0000
  C   C80       1.0  0.03811  0.84661  0.29089  1.0000
  H   H47       1.0  0.07499  0.85470  0.23832  1.0000
  H   H48       1.0  0.03361  0.83377  0.24088  1.0000
  H   H49       1.0  0.11850  0.93825  0.21371  1.0000
  H   H50       1.0  0.08280  0.90900  0.22063  1.0000
  C   C81       1.0  0.42725  0.63423  0.34424  1.0000
  C   C82       1.0  0.39247  0.59132  0.33536  1.0000
  C   C83       1.0  0.39346  0.60960  0.26402  1.0000
  C   C84       1.0  0.41062  0.63101  0.26983  1.0000
  H   H51       1.0  0.41190  0.64355  0.21671  1.0000
  C   C85       1.0  0.37782  0.56797  0.32935  1.0000
  C   C86       1.0  0.35271  0.51862  0.32670  1.0000
  C   C87       1.0  0.37139  0.52523  0.26110  1.0000
  C   C88       1.0  0.38370  0.54954  0.26223  1.0000
  H   H52       1.0  0.37675  0.51205  0.21324  1.0000
  H   H53       1.0  0.39787  0.55319  0.21594  1.0000
  N   N7        1.0  0.37748  0.60600  0.18779  1.0000
  O   O13       1.0  0.39059  0.60347  0.11726  1.0000
  O   O14       1.0  0.36223  0.62464  0.17766  1.0000
  C   C89       1.0  0.57790  0.37017  0.34464  1.0000
  C   C90       1.0  0.61276  0.41301  0.33521  1.0000
  C   C91       1.0  0.61178  0.39461  0.26421  1.0000
  C   C92       1.0  0.59459  0.37324  0.27032  1.0000
  H   H54       1.0  0.59330  0.36062  0.21740  1.0000
  C   C93       1.0  0.62746  0.43633  0.32888  1.0000
  C   C94       1.0  0.65260  0.48566  0.32568  1.0000
  C   C95       1.0  0.63398  0.47898  0.26001  1.0000
  C   C96       1.0  0.62167  0.45466  0.26134  1.0000
  H   H55       1.0  0.62867  0.49209  0.21187  1.0000
  H   H56       1.0  0.60752  0.45097  0.21501  1.0000
  N   N8        1.0  0.62781  0.39807  0.18802  1.0000
  O   O15       1.0  0.61474  0.40051  0.11736  1.0000
  O   O16       1.0  0.64303  0.37939  0.17837  1.0000
  C   C97       1.0  0.63525  0.57850  0.34359  1.0000
  C   C98       1.0  0.59243  0.61309  0.33426  1.0000
  C   C99       1.0  0.61051  0.61192  0.26249  1.0000
  C   C100      1.0  0.63187  0.59488  0.26852  1.0000
  H   H57       1.0  0.64423  0.59342  0.21507  1.0000
  C   C101      1.0  0.56909  0.62756  0.32812  1.0000
  C   C102      1.0  0.51980  0.65233  0.32535  1.0000
  C   C103      1.0  0.52639  0.63351  0.26018  1.0000
  C   C104      1.0  0.55065  0.62136  0.26140  1.0000
  H   H58       1.0  0.51324  0.62793  0.21255  1.0000
  H   H59       1.0  0.55429  0.60710  0.21537  1.0000
  N   N9        1.0  0.60674  0.62762  0.18559  1.0000
  O   O17       1.0  0.60408  0.61418  0.11577  1.0000
  O   O18       1.0  0.62530  0.64300  0.17425  1.0000
  C   C105      1.0  0.36984  0.42575  0.34518  1.0000
  C   C106      1.0  0.41263  0.39114  0.33592  1.0000
  C   C107      1.0  0.39448  0.39221  0.26437  1.0000
  C   C108      1.0  0.37311  0.40925  0.27038  1.0000
  H   H60       1.0  0.36073  0.41066  0.21698  1.0000
  C   C109      1.0  0.43597  0.37668  0.32971  1.0000
  C   C110      1.0  0.48531  0.35203  0.32687  1.0000
  C   C111      1.0  0.47864  0.37077  0.26152  1.0000
  C   C112      1.0  0.45435  0.38285  0.26276  1.0000
  H   H61       1.0  0.49176  0.37635  0.21379  1.0000
  H   H62       1.0  0.45067  0.39709  0.21669  1.0000
  N   N10       1.0  0.39818  0.37640  0.18767  1.0000
  O   O19       1.0  0.40077  0.38976  0.11759  1.0000
  O   O20       1.0  0.37962  0.36100  0.17681  1.0000
  C   C113      1.0  0.08330  0.38816  0.34291  1.0000
  C   C114      1.0  0.10959  0.39567  0.34025  1.0000
  C   C115      1.0  0.11723  0.42199  0.33738  1.0000
  C   C116      1.0  0.09768  0.44112  0.33757  1.0000
  C   C117      1.0  0.07108  0.43452  0.33980  1.0000
  C   C118      1.0  0.06435  0.40789  0.34225  1.0000
  H   H63       1.0  0.10294  0.46025  0.33588  1.0000
  H   H64       1.0  0.04524  0.40273  0.34371  1.0000
  H   H65       1.0  0.12351  0.38162  0.34040  1.0000
  C   C119      1.0  0.92156  0.61754  0.34430  1.0000
  C   C120      1.0  0.89529  0.60995  0.34068  1.0000
  C   C121      1.0  0.88771  0.58361  0.33647  1.0000
  C   C122      1.0  0.90733  0.56454  0.33593  1.0000
  C   C123      1.0  0.93384  0.57131  0.33971  1.0000
  C   C124      1.0  0.94058  0.59788  0.34387  1.0000
  H   H66       1.0  0.90224  0.54538  0.33256  1.0000
  H   H67       1.0  0.95969  0.60300  0.34660  1.0000
  H   H68       1.0  0.88133  0.62397  0.34103  1.0000
  C   C125      1.0  0.61736  0.08321  0.34271  1.0000
  C   C126      1.0  0.60991  0.10956  0.34049  1.0000
  C   C127      1.0  0.58367  0.11710  0.33777  1.0000
  C   C128      1.0  0.56459  0.09738  0.33756  1.0000
  C   C129      1.0  0.57113  0.07075  0.33937  1.0000
  C   C130      1.0  0.59766  0.06412  0.34178  1.0000
  H   H69       1.0  0.54552  0.10256  0.33588  1.0000
  H   H70       1.0  0.60278  0.04497  0.34299  1.0000
  H   H71       1.0  0.62394  0.12360  0.34087  1.0000
  C   C131      1.0  0.38741  0.92116  0.34377  1.0000
  C   C132      1.0  0.39483  0.89480  0.34049  1.0000
  C   C133      1.0  0.42107  0.88723  0.33659  1.0000
  C   C134      1.0  0.44016  0.90692  0.33585  1.0000
  C   C135      1.0  0.43357  0.93350  0.33928  1.0000
  C   C136      1.0  0.40712  0.94024  0.34328  1.0000
  H   H72       1.0  0.45925  0.90183  0.33262  1.0000
  H   H73       1.0  0.40213  0.95942  0.34581  1.0000
  H   H74       1.0  0.38079  0.88078  0.34090  1.0000
  C   C137      1.0  0.05797  0.15356  0.33958  1.0000
  C   C138      1.0  0.03216  0.14481  0.34436  1.0000
  C   C139      1.0  0.01126  0.16227  0.35006  1.0000
  C   C140      1.0  0.01666  0.18914  0.34976  1.0000
  C   C141      1.0  0.04236  0.19858  0.34519  1.0000
  C   C142      1.0  0.06285  0.18051  0.34069  1.0000
  H   H75       1.0  0.00168  0.20201  0.35348  1.0000
  H   H76       1.0  0.08155  0.18701  0.33838  1.0000
  H   H77       1.0  0.02851  0.12527  0.34406  1.0000
  C   C143      1.0  0.94714  0.85210  0.34128  1.0000
  C   C144      1.0  0.97297  0.86082  0.34612  1.0000
  C   C145      1.0  0.99383  0.84332  0.35190  1.0000
  C   C146      1.0  0.98839  0.81645  0.35166  1.0000
  C   C147      1.0  0.96267  0.80706  0.34706  1.0000
  C   C148      1.0  0.94221  0.82516  0.34246  1.0000
  H   H78       1.0  0.00335  0.80356  0.35539  1.0000
  H   H79       1.0  0.92350  0.81869  0.34012  1.0000
  H   H80       1.0  0.97664  0.88035  0.34575  1.0000
  C   C149      1.0  0.85116  0.05823  0.33941  1.0000
  C   C150      1.0  0.85982  0.03238  0.34486  1.0000
  C   C151      1.0  0.84236  0.01138  0.35098  1.0000
  C   C152      1.0  0.81557  0.01670  0.35038  1.0000
  C   C153      1.0  0.80623  0.04244  0.34518  1.0000
  C   C154      1.0  0.82431  0.06304  0.34029  1.0000
  H   H81       1.0  0.80272  0.00162  0.35431  1.0000
  H   H82       1.0  0.81790  0.08178  0.33760  1.0000
  H   H83       1.0  0.87929  0.02880  0.34471  1.0000
  C   C155      1.0  0.15382  0.94756  0.34063  1.0000
  C   C156      1.0  0.14529  0.97345  0.34586  1.0000
  C   C157      1.0  0.16285  0.99438  0.35187  1.0000
  C   C158      1.0  0.18961  0.98894  0.35143  1.0000
  C   C159      1.0  0.19881  0.96315  0.34643  1.0000
  C   C160      1.0  0.18065  0.94262  0.34162  1.0000
  H   H84       1.0  0.20255  0.00395  0.35531  1.0000
  H   H85       1.0  0.18698  0.92386  0.33899  1.0000
  H   H86       1.0  0.12583  0.97713  0.34566  1.0000
  C   C161      1.0  0.44743  0.65293  0.34183  1.0000
  C   C162      1.0  0.47325  0.64440  0.33672  1.0000
  C   C163      1.0  0.49411  0.66203  0.33050  1.0000
  C   C164      1.0  0.48864  0.68887  0.33064  1.0000
  C   C165      1.0  0.46293  0.69806  0.33562  1.0000
  C   C166      1.0  0.44248  0.67983  0.34060  1.0000
  H   H87       1.0  0.50358  0.70186  0.32650  1.0000
  H   H88       1.0  0.42377  0.68618  0.34320  1.0000
  H   H89       1.0  0.47694  0.62489  0.33714  1.0000
  C   C167      1.0  0.55771  0.35147  0.34250  1.0000
  C   C168      1.0  0.53187  0.36000  0.33762  1.0000
  C   C169      1.0  0.51102  0.34236  0.33181  1.0000
  C   C170      1.0  0.51648  0.31553  0.33213  1.0000
  C   C171      1.0  0.54220  0.30632  0.33683  1.0000
  C   C172      1.0  0.56265  0.32456  0.34143  1.0000
  H   H90       1.0  0.50153  0.30254  0.32833  1.0000
  H   H91       1.0  0.58136  0.31822  0.34381  1.0000
  H   H92       1.0  0.52819  0.37951  0.33792  1.0000
  C   C173      1.0  0.65377  0.55825  0.34142  1.0000
  C   C174      1.0  0.64505  0.53236  0.33650  1.0000
  C   C175      1.0  0.66247  0.51142  0.33055  1.0000
  C   C176      1.0  0.68927  0.51684  0.33070  1.0000
  C   C177      1.0  0.69864  0.54263  0.33537  1.0000
  C   C178      1.0  0.68063  0.56317  0.34017  1.0000
  H   H93       1.0  0.70210  0.50182  0.32674  1.0000
  H   H94       1.0  0.68710  0.58193  0.34254  1.0000
  H   H95       1.0  0.62557  0.52869  0.33689  1.0000
  C   C179      1.0  0.35136  0.44604  0.34282  1.0000
  C   C180      1.0  0.36015  0.47191  0.33776  1.0000
  C   C181      1.0  0.34280  0.49289  0.33171  1.0000
  C   C182      1.0  0.31599  0.48754  0.33191  1.0000
  C   C183      1.0  0.30651  0.46179  0.33661  1.0000
  C   C184      1.0  0.32449  0.44120  0.34150  1.0000
  H   H96       1.0  0.30321  0.50261  0.32799  1.0000
  H   H97       1.0  0.31797  0.42246  0.34388  1.0000
  H   H98       1.0  0.37964  0.47552  0.33815  1.0000
  C   C185      1.0  0.97100  0.54928  0.41053  1.0000
  C   C186      1.0  0.99001  0.52982  0.40988  1.0000
  C   C187      1.0  0.01187  0.47322  0.40206  1.0000
  C   C188      1.0  0.03102  0.45385  0.40226  1.0000
  H   H99       1.0  0.99734  0.47225  0.44854  1.0000
  H   H100      1.0  0.03005  0.43965  0.45009  1.0000
  H   H101      1.0  0.96984  0.56134  0.46494  1.0000
  H   H102      1.0  0.00234  0.52854  0.46341  1.0000
  C   C189      1.0  0.45577  0.97083  0.40969  1.0000
  C   C190      1.0  0.47539  0.98979  0.40906  1.0000
  C   C191      1.0  0.53216  0.01137  0.40143  1.0000
  C   C192      1.0  0.55163  0.03053  0.40159  1.0000
  H   H103      1.0  0.53298  0.99681  0.44801  1.0000
  H   H104      1.0  0.56577  0.02955  0.44947  1.0000
  H   H105      1.0  0.44366  0.96981  0.46392  1.0000
  H   H106      1.0  0.47673  0.00225  0.46238  1.0000
  C   C193      1.0  0.04752  0.22573  0.34613  1.0000
  C   C194      1.0  0.05796  0.28018  0.34851  1.0000
  C   C195      1.0  0.04481  0.26831  0.42157  1.0000
  C   C196      1.0  0.03949  0.24134  0.41890  1.0000
  H   H107      1.0  0.03000  0.23299  0.47191  1.0000
  C   C197      1.0  0.06390  0.30718  0.34780  1.0000
  C   C198      1.0  0.07634  0.36132  0.34570  1.0000
  C   C199      1.0  0.08772  0.34436  0.40905  1.0000
  C   C200      1.0  0.08148  0.31778  0.41058  1.0000
  H   H108      1.0  0.10057  0.35129  0.45550  1.0000
  H   H109      1.0  0.09019  0.30613  0.45715  1.0000
  N   N11       1.0  0.03683  0.28368  0.49527  1.0000
  O   O21       1.0  0.04709  0.27621  0.56725  1.0000
  O   O22       1.0  0.01272  0.28319  0.50459  1.0000
  C   C201      1.0  0.95746  0.77993  0.34803  1.0000
  C   C202      1.0  0.94685  0.72551  0.35053  1.0000
  C   C203      1.0  0.96001  0.73736  0.42361  1.0000
  C   C204      1.0  0.96542  0.76430  0.42089  1.0000
  H   H110      1.0  0.97491  0.77265  0.47390  1.0000
  C   C205      1.0  0.94090  0.69851  0.34975  1.0000
  C   C206      1.0  0.92848  0.64438  0.34740  1.0000
  C   C207      1.0  0.91695  0.66134  0.41044  1.0000
  C   C208      1.0  0.92320  0.68791  0.41212  1.0000
  H   H111      1.0  0.90400  0.65441  0.45652  1.0000
  H   H112      1.0  0.91439  0.69957  0.45844  1.0000
  N   N12       1.0  0.96793  0.72197  0.49736  1.0000
  O   O23       1.0  0.95767  0.72948  0.56929  1.0000
  O   O24       1.0  0.99204  0.72239  0.50677  1.0000
  C   C209      1.0  0.77917  0.04754  0.34594  1.0000
  C   C210      1.0  0.72493  0.05800  0.34820  1.0000
  C   C211      1.0  0.73664  0.04464  0.42097  1.0000
  C   C212      1.0  0.76350  0.03931  0.41835  1.0000
  H   H113      1.0  0.77173  0.02969  0.47119  1.0000
  C   C213      1.0  0.69804  0.06395  0.34744  1.0000
  C   C214      1.0  0.64412  0.07634  0.34534  1.0000
  C   C215      1.0  0.66107  0.08772  0.40888  1.0000
  C   C216      1.0  0.68753  0.08149  0.41040  1.0000
  H   H114      1.0  0.65420  0.10053  0.45549  1.0000
  H   H115      1.0  0.69917  0.09018  0.45717  1.0000
  N   N13       1.0  0.72122  0.03645  0.49430  1.0000
  O   O25       1.0  0.72868  0.04657  0.56664  1.0000
  O   O26       1.0  0.72155  0.01225  0.50293  1.0000
  C   C217      1.0  0.22582  0.95789  0.34727  1.0000
  C   C218      1.0  0.27996  0.94694  0.34984  1.0000
  C   C219      1.0  0.26820  0.95982  0.42358  1.0000
  C   C220      1.0  0.24140  0.96542  0.42081  1.0000
  H   H116      1.0  0.23312  0.97467  0.47435  1.0000
  C   C221      1.0  0.30681  0.94082  0.34903  1.0000
  C   C222      1.0  0.36067  0.92812  0.34665  1.0000
  C   C223      1.0  0.34361  0.91651  0.40929  1.0000
  C   C224      1.0  0.31718  0.92289  0.41097  1.0000
  H   H117      1.0  0.35036  0.90342  0.45518  1.0000
  H   H118      1.0  0.30545  0.91402  0.45706  1.0000
  N   N14       1.0  0.28353  0.96728  0.49808  1.0000
  O   O27       1.0  0.27583  0.95664  0.56921  1.0000
  O   O28       1.0  0.28338  0.99141  0.50906  1.0000
  C   C225      1.0  0.44502  0.73718  0.40743  1.0000
  C   C226      1.0  0.43991  0.76395  0.40637  1.0000
  C   C227      1.0  0.45230  0.82339  0.39417  1.0000
  C   C228      1.0  0.44627  0.85000  0.39454  1.0000
  H   H119      1.0  0.46555  0.81657  0.43931  1.0000
  H   H120      1.0  0.45501  0.86168  0.44112  1.0000
  H   H121      1.0  0.43975  0.72659  0.46265  1.0000
  H   H122      1.0  0.43074  0.77200  0.46049  1.0000
  C   C229      1.0  0.56073  0.26731  0.40765  1.0000
  C   C230      1.0  0.56574  0.24052  0.40684  1.0000
  C   C231      1.0  0.55288  0.18102  0.39704  1.0000
  C   C232      1.0  0.55885  0.15439  0.39725  1.0000
  H   H123      1.0  0.53993  0.18791  0.44304  1.0000
  H   H124      1.0  0.55039  0.14277  0.44460  1.0000
  H   H125      1.0  0.56653  0.27801  0.46195  1.0000
  H   H126      1.0  0.57539  0.23257  0.46011  1.0000
  C   C233      1.0  0.73786  0.56054  0.40677  1.0000
  C   C234      1.0  0.76462  0.56542  0.40577  1.0000
  C   C235      1.0  0.82377  0.55247  0.39390  1.0000
  C   C236      1.0  0.85038  0.55836  0.39417  1.0000
  H   H127      1.0  0.81681  0.53928  0.43925  1.0000
  H   H128      1.0  0.86191  0.54964  0.44101  1.0000
  H   H129      1.0  0.72736  0.56599  0.46186  1.0000
  H   H130      1.0  0.77277  0.57464  0.45971  1.0000
  C   C237      1.0  0.26735  0.44319  0.40653  1.0000
  C   C238      1.0  0.24056  0.43850  0.40575  1.0000
  C   C239      1.0  0.18140  0.45229  0.39686  1.0000
  C   C240      1.0  0.15475  0.44658  0.39696  1.0000
  H   H131      1.0  0.18851  0.46507  0.44331  1.0000
  H   H132      1.0  0.14332  0.45500  0.44474  1.0000
  H   H133      1.0  0.27794  0.43702  0.46047  1.0000
  H   H134      1.0  0.23249  0.42869  0.45856  1.0000
  C   C241      1.0  0.07821  0.13502  0.33754  1.0000
  C   C242      1.0  0.11321  0.09249  0.34715  1.0000
  C   C243      1.0  0.11219  0.11093  0.41798  1.0000
  C   C244      1.0  0.09493  0.13215  0.41181  1.0000
  H   H135      1.0  0.09366  0.14480  0.46459  1.0000
  C   C245      1.0  0.12797  0.06930  0.35359  1.0000
  C   C246      1.0  0.15313  0.02012  0.35697  1.0000
  C   C247      1.0  0.13463  0.02678  0.42297  1.0000
  C   C248      1.0  0.12230  0.05100  0.42149  1.0000
  H   H136      1.0  0.12936  0.01367  0.47126  1.0000
  H   H137      1.0  0.10822  0.05465  0.46804  1.0000
  N   N15       1.0  0.12828  0.10768  0.49410  1.0000
  O   O29       1.0  0.11526  0.10519  0.56487  1.0000
  O   O30       1.0  0.14345  0.12652  0.50346  1.0000
  C   C249      1.0  0.92695  0.87066  0.33910  1.0000
  C   C250      1.0  0.89207  0.91328  0.34808  1.0000
  C   C251      1.0  0.89318  0.89504  0.41953  1.0000
  C   C252      1.0  0.91037  0.87377  0.41366  1.0000
  H   H138      1.0  0.91174  0.86128  0.46685  1.0000
  C   C253      1.0  0.87735  0.93650  0.35406  1.0000
  C   C254      1.0  0.85218  0.98568  0.35642  1.0000
  C   C255      1.0  0.87081  0.97921  0.42219  1.0000
  C   C256      1.0  0.88313  0.95498  0.42127  1.0000
  H   H139      1.0  0.87612  0.99243  0.47008  1.0000
  H   H140      1.0  0.89730  0.95146  0.46762  1.0000
  N   N16       1.0  0.87727  0.89855  0.49594  1.0000
  O   O31       1.0  0.89045  0.90122  0.56630  1.0000
  O   O32       1.0  0.86207  0.87978  0.50636  1.0000
  C   C257      1.0  0.86973  0.07854  0.33701  1.0000
  C   C258      1.0  0.91271  0.11316  0.34613  1.0000
  C   C259      1.0  0.89464  0.11200  0.41794  1.0000
  C   C260      1.0  0.87319  0.09493  0.41203  1.0000
  H   H141      1.0  0.86084  0.09347  0.46554  1.0000
  C   C261      1.0  0.93613  0.12762  0.35221  1.0000
  C   C262      1.0  0.98556  0.15240  0.35488  1.0000
  C   C263      1.0  0.97891  0.13353  0.41993  1.0000
  C   C264      1.0  0.95457  0.12137  0.41876  1.0000
  H   H142      1.0  0.99203  0.12795  0.46752  1.0000
  H   H143      1.0  0.95086  0.10709  0.46472  1.0000
  N   N17       1.0  0.89851  0.12773  0.49479  1.0000
  O   O33       1.0  0.90112  0.11430  0.56465  1.0000
  O   O34       1.0  0.88003  0.14309  0.50613  1.0000
  C   C265      1.0  0.13518  0.92731  0.33826  1.0000
  C   C266      1.0  0.09224  0.89262  0.34746  1.0000
  C   C267      1.0  0.11049  0.89358  0.41874  1.0000
  C   C268      1.0  0.13192  0.91067  0.41274  1.0000
  H   H144      1.0  0.14439  0.91198  0.46593  1.0000
  C   C269      1.0  0.06888  0.87806  0.35367  1.0000
  C   C270      1.0  0.01953  0.85315  0.35670  1.0000
  C   C271      1.0  0.02625  0.87189  0.42212  1.0000
  C   C272      1.0  0.05055  0.88410  0.42083  1.0000
  H   H145      1.0  0.01317  0.87736  0.47001  1.0000
  H   H146      1.0  0.05429  0.89832  0.46701  1.0000
  N   N18       1.0  0.10683  0.87762  0.49512  1.0000
  O   O35       1.0  0.10439  0.89084  0.56554  1.0000
  O   O36       1.0  0.12533  0.86224  0.50533  1.0000
  C   C273      1.0  0.42589  0.61606  0.41499  1.0000
  C   C274      1.0  0.40854  0.59511  0.41112  1.0000
  C   C275      1.0  0.35893  0.56154  0.39436  1.0000
  C   C276      1.0  0.34634  0.53730  0.39251  1.0000
  H   H147      1.0  0.35459  0.57429  0.44474  1.0000
  H   H148      1.0  0.33349  0.53290  0.44249  1.0000
  H   H149      1.0  0.43813  0.61750  0.46879  1.0000
  H   H150      1.0  0.40882  0.58180  0.46210  1.0000
  C   C277      1.0  0.57926  0.38843  0.41509  1.0000
  C   C278      1.0  0.59665  0.40936  0.41095  1.0000
  C   C279      1.0  0.64630  0.44283  0.39397  1.0000
  C   C280      1.0  0.65892  0.46706  0.39182  1.0000
  H   H151      1.0  0.65056  0.43017  0.44469  1.0000
  H   H152      1.0  0.67169  0.47154  0.44198  1.0000
  H   H153      1.0  0.56699  0.38710  0.46883  1.0000
  H   H154      1.0  0.59636  0.42275  0.46168  1.0000
  C   C281      1.0  0.61730  0.58004  0.41481  1.0000
  C   C282      1.0  0.59638  0.59727  0.41063  1.0000
  C   C283      1.0  0.56268  0.64660  0.39270  1.0000
  C   C284      1.0  0.53848  0.65902  0.39076  1.0000
  H   H155      1.0  0.57540  0.65114  0.44292  1.0000
  H   H156      1.0  0.53408  0.67192  0.44062  1.0000
  H   H157      1.0  0.61881  0.56792  0.46899  1.0000
  H   H158      1.0  0.58322  0.59708  0.46195  1.0000
  C   C285      1.0  0.38784  0.42430  0.41622  1.0000
  C   C286      1.0  0.40874  0.40703  0.41215  1.0000
  C   C287      1.0  0.44246  0.35772  0.39444  1.0000
  C   C288      1.0  0.46668  0.34534  0.39246  1.0000
  H   H159      1.0  0.42978  0.35319  0.44482  1.0000
  H   H160      1.0  0.47114  0.33250  0.44241  1.0000
  H   H161      1.0  0.38638  0.43647  0.47028  1.0000
  H   H162      1.0  0.42196  0.40729  0.46330  1.0000
