data_image0
_chemical_formula_structural       C2HC3HOHC3HOHC4H2C3OH2C3OH2C2HC3HOHC3HOHC4H2C3OH2C3OH2C2HCHC2HOC3HOHCHC3HC4H2COHC3OH2C2HCHC2HOC3HOHCHC3HC4H2COHC3OH2C8HC2H2C3HCHC4H2CHC2HC2H2C3HCHC4H2CHC2HC3HOHC3HOHC4H2C3OH2C3OH2C2HC3HOHC3HOHC4H2C3OH2C3OH2C2HC2HC2HC2HC2HC2HC3HOHC3HOHC3HOHC3HOHC3HOHC3HOHC4H2C4H2C4H2C4H2C4H2C4H2C3OH2C3OH2C3OH2C3OH2C3OH2C3OH2C2HC2HC2HC2HC2HC2HC3HOHC3HOHC3HOHC3HOHC3HOHC3HOHC4H2C4H2C4H2C4H2C4H2C4H2C3OH2C3OH2C3OH2C3OH2C3OH2C3OH2
_chemical_formula_sum              "C288 H168 O48"
_cell_length_a       46.7801
_cell_length_b       46.78
_cell_length_c       14.7965
_cell_angle_alpha    90
_cell_angle_beta     90
_cell_angle_gamma    120

_space_group_name_H-M_alt    "P 1"
_space_group_IT_number       1

loop_
  _space_group_symop_operation_xyz
  'x, y, z'

loop_
  _atom_site_type_symbol
  _atom_site_label
  _atom_site_symmetry_multiplicity
  _atom_site_fract_x
  _atom_site_fract_y
  _atom_site_fract_z
  _atom_site_occupancy
  C   C1        1.0  0.04744  0.30121  0.34676  1.0000
  C   C2        1.0  0.08238  0.31909  0.34695  1.0000
  H   H1        1.0  0.03645  0.31525  0.34615  1.0000
  C   C3        1.0  0.11692  0.25063  0.26583  1.0000
  C   C4        1.0  0.14698  0.25041  0.26446  1.0000
  C   C5        1.0  0.16316  0.25098  0.34616  1.0000
  H   H2        1.0  0.10809  0.25416  0.20595  1.0000
  O   O1        1.0  0.16244  0.25525  0.18323  1.0000
  H   H3        1.0  0.16131  0.23426  0.16788  1.0000
  C   C6        1.0  0.14754  0.40025  0.26624  1.0000
  C   C7        1.0  0.11727  0.37018  0.26468  1.0000
  C   C8        1.0  0.10157  0.35399  0.34627  1.0000
  H   H4        1.0  0.15994  0.40907  0.20643  1.0000
  O   O2        1.0  0.10673  0.35473  0.18339  1.0000
  H   H5        1.0  0.08687  0.35584  0.16788  1.0000
  C   C9        1.0  0.02823  0.26581  0.34722  1.0000
  C   C10       1.0  0.09937  0.30137  0.34702  1.0000
  C   C11       1.0  0.08238  0.26668  0.34728  1.0000
  C   C12       1.0  0.04744  0.24962  0.34765  1.0000
  H   H6        1.0  0.12473  0.31405  0.34697  1.0000
  H   H7        1.0  0.03645  0.22459  0.34838  1.0000
  C   C13       1.0  0.14751  0.25078  0.42826  1.0000
  C   C14       1.0  0.11719  0.25049  0.42970  1.0000
  C   C15       1.0  0.10157  0.25096  0.34795  1.0000
  O   O3        1.0  0.10671  0.25552  0.51095  1.0000
  H   H8        1.0  0.15991  0.25438  0.48809  1.0000
  H   H9        1.0  0.08665  0.23469  0.52622  1.0000
  C   C16       1.0  0.11695  0.36964  0.42845  1.0000
  C   C17       1.0  0.14697  0.39996  0.43000  1.0000
  C   C18       1.0  0.16318  0.41564  0.34841  1.0000
  O   O4        1.0  0.16240  0.41043  0.51134  1.0000
  H   H10       1.0  0.10810  0.35724  0.48824  1.0000
  H   H11       1.0  0.16163  0.43048  0.52656  1.0000
  C   C19       1.0  0.04744  0.80121  0.34676  1.0000
  C   C20       1.0  0.08238  0.81909  0.34695  1.0000
  H   H12       1.0  0.03646  0.81525  0.34615  1.0000
  C   C21       1.0  0.11692  0.75063  0.26583  1.0000
  C   C22       1.0  0.14698  0.75041  0.26446  1.0000
  C   C23       1.0  0.16316  0.75098  0.34616  1.0000
  H   H13       1.0  0.10809  0.75416  0.20595  1.0000
  O   O5        1.0  0.16244  0.75525  0.18323  1.0000
  H   H14       1.0  0.16131  0.73426  0.16788  1.0000
  C   C24       1.0  0.14754  0.90025  0.26624  1.0000
  C   C25       1.0  0.11726  0.87018  0.26468  1.0000
  C   C26       1.0  0.10157  0.85399  0.34627  1.0000
  H   H15       1.0  0.15994  0.90907  0.20643  1.0000
  O   O6        1.0  0.10673  0.85473  0.18339  1.0000
  H   H16       1.0  0.08687  0.85584  0.16788  1.0000
  C   C27       1.0  0.02823  0.76581  0.34722  1.0000
  C   C28       1.0  0.09937  0.80137  0.34702  1.0000
  C   C29       1.0  0.08238  0.76668  0.34728  1.0000
  C   C30       1.0  0.04744  0.74962  0.34765  1.0000
  H   H17       1.0  0.12473  0.81405  0.34697  1.0000
  H   H18       1.0  0.03645  0.72459  0.34838  1.0000
  C   C31       1.0  0.14751  0.75078  0.42826  1.0000
  C   C32       1.0  0.11719  0.75049  0.42970  1.0000
  C   C33       1.0  0.10157  0.75096  0.34795  1.0000
  O   O7        1.0  0.10671  0.75552  0.51095  1.0000
  H   H19       1.0  0.15991  0.75438  0.48809  1.0000
  H   H20       1.0  0.08665  0.73469  0.52622  1.0000
  C   C34       1.0  0.11695  0.86964  0.42845  1.0000
  C   C35       1.0  0.14697  0.89996  0.43000  1.0000
  C   C36       1.0  0.16318  0.91564  0.34841  1.0000
  O   O8        1.0  0.16240  0.91043  0.51134  1.0000
  H   H21       1.0  0.10810  0.85724  0.48824  1.0000
  H   H22       1.0  0.16163  0.93048  0.52656  1.0000
  C   C37       1.0  0.21594  0.24963  0.34680  1.0000
  C   C38       1.0  0.19806  0.26669  0.34687  1.0000
  H   H23       1.0  0.20190  0.22460  0.34619  1.0000
  C   C39       1.0  0.25310  0.04403  0.34689  1.0000
  H   H24       1.0  0.22808  0.03304  0.34650  1.0000
  C   C40       1.0  0.25049  0.43484  0.34737  1.0000
  C   C41       1.0  0.26619  0.41566  0.34668  1.0000
  H   H25       1.0  0.26255  0.35731  0.20603  1.0000
  O   O9        1.0  0.26143  0.41047  0.18371  1.0000
  C   C42       1.0  0.25423  0.14413  0.26549  1.0000
  C   C43       1.0  0.25403  0.11387  0.26412  1.0000
  C   C44       1.0  0.25447  0.09815  0.34577  1.0000
  H   H26       1.0  0.25785  0.15654  0.20568  1.0000
  O   O10       1.0  0.25898  0.10332  0.18288  1.0000
  H   H27       1.0  0.23806  0.08339  0.16749  1.0000
  C   C45       1.0  0.25308  0.21251  0.34771  1.0000
  H   H28       1.0  0.22805  0.19847  0.34841  1.0000
  C   C46       1.0  0.25134  0.26581  0.34736  1.0000
  C   C47       1.0  0.21578  0.30138  0.34681  1.0000
  C   C48       1.0  0.25047  0.31909  0.34718  1.0000
  H   H29       1.0  0.20310  0.31407  0.34664  1.0000
  C   C49       1.0  0.25136  0.48897  0.34766  1.0000
  C   C50       1.0  0.21579  0.41784  0.34765  1.0000
  C   C51       1.0  0.19808  0.43483  0.34778  1.0000
  C   C52       1.0  0.21596  0.46977  0.34808  1.0000
  H   H30       1.0  0.20311  0.39248  0.34766  1.0000
  H   H31       1.0  0.20192  0.48076  0.34871  1.0000
  C   C53       1.0  0.26619  0.35397  0.34780  1.0000
  O   O11       1.0  0.26214  0.35470  0.51079  1.0000
  H   H32       1.0  0.26321  0.40901  0.48851  1.0000
  C   C54       1.0  0.25408  0.11353  0.42784  1.0000
  C   C55       1.0  0.25379  0.14355  0.42934  1.0000
  C   C56       1.0  0.25441  0.15973  0.34763  1.0000
  O   O12       1.0  0.25868  0.15898  0.51067  1.0000
  H   H33       1.0  0.25760  0.10468  0.48770  1.0000
  H   H34       1.0  0.23782  0.15818  0.52573  1.0000
  C   C57       1.0  0.21594  0.74963  0.34680  1.0000
  C   C58       1.0  0.19806  0.76669  0.34687  1.0000
  H   H35       1.0  0.20190  0.72460  0.34619  1.0000
  C   C59       1.0  0.25311  0.54403  0.34689  1.0000
  H   H36       1.0  0.22808  0.53304  0.34650  1.0000
  C   C60       1.0  0.25049  0.93484  0.34737  1.0000
  C   C61       1.0  0.26619  0.91566  0.34668  1.0000
  H   H37       1.0  0.26255  0.85731  0.20603  1.0000
  O   O13       1.0  0.26143  0.91047  0.18371  1.0000
  C   C62       1.0  0.25422  0.64413  0.26549  1.0000
  C   C63       1.0  0.25403  0.61387  0.26412  1.0000
  C   C64       1.0  0.25447  0.59815  0.34577  1.0000
  H   H38       1.0  0.25785  0.65654  0.20568  1.0000
  O   O14       1.0  0.25898  0.60332  0.18288  1.0000
  H   H39       1.0  0.23806  0.58339  0.16749  1.0000
  C   C65       1.0  0.25308  0.71251  0.34771  1.0000
  H   H40       1.0  0.22805  0.69847  0.34841  1.0000
  C   C66       1.0  0.25134  0.76582  0.34736  1.0000
  C   C67       1.0  0.21578  0.80139  0.34681  1.0000
  C   C68       1.0  0.25047  0.81909  0.34718  1.0000
  H   H41       1.0  0.20310  0.81407  0.34664  1.0000
  C   C69       1.0  0.25136  0.98898  0.34766  1.0000
  C   C70       1.0  0.21579  0.91784  0.34765  1.0000
  C   C71       1.0  0.19808  0.93483  0.34778  1.0000
  C   C72       1.0  0.21596  0.96977  0.34808  1.0000
  H   H42       1.0  0.20311  0.89248  0.34766  1.0000
  H   H43       1.0  0.20192  0.98076  0.34871  1.0000
  C   C73       1.0  0.26618  0.85397  0.34780  1.0000
  O   O15       1.0  0.26214  0.85470  0.51079  1.0000
  H   H44       1.0  0.26320  0.90901  0.48851  1.0000
  C   C74       1.0  0.25408  0.61353  0.42784  1.0000
  C   C75       1.0  0.25379  0.64355  0.42934  1.0000
  C   C76       1.0  0.25441  0.65973  0.34763  1.0000
  O   O16       1.0  0.25868  0.65898  0.51067  1.0000
  H   H45       1.0  0.25760  0.60468  0.48770  1.0000
  H   H46       1.0  0.23782  0.65818  0.52573  1.0000
  C   C77       1.0  0.26637  0.36973  0.26591  1.0000
  C   C78       1.0  0.26656  0.39999  0.26484  1.0000
  C   C79       1.0  0.26674  0.40027  0.42851  1.0000
  C   C80       1.0  0.26637  0.86972  0.26591  1.0000
  C   C81       1.0  0.26656  0.89999  0.26484  1.0000
  C   C82       1.0  0.26674  0.90027  0.42851  1.0000
  C   C83       1.0  0.32255  0.24704  0.34693  1.0000
  C   C84       1.0  0.30467  0.26409  0.34691  1.0000
  H   H47       1.0  0.31871  0.28912  0.34638  1.0000
  C   C85       1.0  0.27017  0.07896  0.34646  1.0000
  C   C86       1.0  0.26755  0.46977  0.34716  1.0000
  H   H48       1.0  0.29257  0.48076  0.34641  1.0000
  H   H49       1.0  0.28223  0.43054  0.16831  1.0000
  C   C87       1.0  0.26927  0.24790  0.34736  1.0000
  C   C88       1.0  0.27014  0.19464  0.34718  1.0000
  C   C89       1.0  0.30484  0.21234  0.34689  1.0000
  H   H50       1.0  0.31752  0.19966  0.34675  1.0000
  C   C90       1.0  0.26753  0.30121  0.34784  1.0000
  H   H51       1.0  0.29256  0.31525  0.34866  1.0000
  C   C91       1.0  0.26929  0.02482  0.34752  1.0000
  C   C92       1.0  0.30469  0.04402  0.34793  1.0000
  C   C93       1.0  0.32258  0.07896  0.34682  1.0000
  C   C94       1.0  0.30487  0.09595  0.34614  1.0000
  H   H52       1.0  0.31873  0.03303  0.34898  1.0000
  H   H53       1.0  0.31756  0.12131  0.34575  1.0000
  C   C95       1.0  0.26691  0.37018  0.42960  1.0000
  H   H54       1.0  0.28316  0.35586  0.52598  1.0000
  C   C96       1.0  0.32255  0.74704  0.34693  1.0000
  C   C97       1.0  0.30467  0.76409  0.34691  1.0000
  H   H55       1.0  0.31871  0.78912  0.34638  1.0000
  C   C98       1.0  0.27017  0.57896  0.34646  1.0000
  C   C99       1.0  0.26755  0.96977  0.34716  1.0000
  H   H56       1.0  0.29257  0.98076  0.34641  1.0000
  H   H57       1.0  0.28223  0.93054  0.16831  1.0000
  C   C100      1.0  0.26927  0.74790  0.34736  1.0000
  C   C101      1.0  0.27014  0.69463  0.34718  1.0000
  C   C102      1.0  0.30484  0.71234  0.34689  1.0000
  H   H58       1.0  0.31752  0.69966  0.34675  1.0000
  C   C103      1.0  0.26753  0.80121  0.34784  1.0000
  H   H59       1.0  0.29256  0.81525  0.34866  1.0000
  C   C104      1.0  0.26929  0.52482  0.34752  1.0000
  C   C105      1.0  0.30469  0.54402  0.34793  1.0000
  C   C106      1.0  0.32257  0.57896  0.34682  1.0000
  C   C107      1.0  0.30487  0.59595  0.34614  1.0000
  H   H60       1.0  0.31872  0.53303  0.34898  1.0000
  H   H61       1.0  0.31756  0.62131  0.34575  1.0000
  C   C108      1.0  0.26691  0.87018  0.42960  1.0000
  H   H62       1.0  0.28316  0.85586  0.52598  1.0000
  C   C109      1.0  0.43824  0.19462  0.34728  1.0000
  C   C110      1.0  0.47318  0.21249  0.34690  1.0000
  H   H63       1.0  0.48417  0.19845  0.34612  1.0000
  C   C111      1.0  0.40369  0.26310  0.26618  1.0000
  C   C112      1.0  0.37360  0.26328  0.26469  1.0000
  C   C113      1.0  0.35746  0.26276  0.34637  1.0000
  H   H64       1.0  0.41242  0.25940  0.20639  1.0000
  O   O17       1.0  0.35813  0.25828  0.18339  1.0000
  H   H65       1.0  0.35893  0.27912  0.16810  1.0000
  C   C114      1.0  0.37314  0.11373  0.26547  1.0000
  C   C115      1.0  0.40340  0.14381  0.26456  1.0000
  C   C116      1.0  0.41904  0.15972  0.34657  1.0000
  H   H66       1.0  0.36069  0.10519  0.20562  1.0000
  O   O18       1.0  0.41388  0.15950  0.18353  1.0000
  H   H67       1.0  0.43399  0.15885  0.16812  1.0000
  C   C117      1.0  0.49239  0.24789  0.34729  1.0000
  C   C118      1.0  0.47318  0.26408  0.34774  1.0000
  C   C119      1.0  0.43824  0.24702  0.34773  1.0000
  C   C120      1.0  0.42125  0.21232  0.34770  1.0000
  H   H68       1.0  0.48417  0.28911  0.34826  1.0000
  H   H69       1.0  0.39589  0.19964  0.34782  1.0000
  C   C121      1.0  0.37310  0.26309  0.42854  1.0000
  C   C122      1.0  0.40334  0.26322  0.42993  1.0000
  C   C123      1.0  0.41904  0.26271  0.34830  1.0000
  O   O19       1.0  0.41388  0.25828  0.51119  1.0000
  H   H70       1.0  0.36069  0.25944  0.48836  1.0000
  H   H71       1.0  0.43380  0.27921  0.52661  1.0000
  C   C124      1.0  0.40370  0.14375  0.42839  1.0000
  C   C125      1.0  0.37362  0.11347  0.42938  1.0000
  C   C126      1.0  0.35748  0.09814  0.34741  1.0000
  O   O20       1.0  0.35812  0.10266  0.51051  1.0000
  H   H72       1.0  0.41246  0.15599  0.48843  1.0000
  H   H73       1.0  0.35938  0.08285  0.52561  1.0000
  C   C127      1.0  0.43824  0.69462  0.34728  1.0000
  C   C128      1.0  0.47318  0.71249  0.34690  1.0000
  H   H74       1.0  0.48417  0.69846  0.34612  1.0000
  C   C129      1.0  0.40369  0.76310  0.26618  1.0000
  C   C130      1.0  0.37360  0.76328  0.26469  1.0000
  C   C131      1.0  0.35746  0.76276  0.34637  1.0000
  H   H75       1.0  0.41242  0.75940  0.20639  1.0000
  O   O21       1.0  0.35813  0.75828  0.18339  1.0000
  H   H76       1.0  0.35893  0.77912  0.16810  1.0000
  C   C132      1.0  0.37313  0.61373  0.26547  1.0000
  C   C133      1.0  0.40340  0.64381  0.26456  1.0000
  C   C134      1.0  0.41904  0.65972  0.34657  1.0000
  H   H77       1.0  0.36069  0.60519  0.20562  1.0000
  O   O22       1.0  0.41388  0.65950  0.18353  1.0000
  H   H78       1.0  0.43399  0.65885  0.16812  1.0000
  C   C135      1.0  0.49239  0.74789  0.34729  1.0000
  C   C136      1.0  0.47318  0.76408  0.34774  1.0000
  C   C137      1.0  0.43824  0.74702  0.34773  1.0000
  C   C138      1.0  0.42125  0.71232  0.34770  1.0000
  H   H79       1.0  0.48417  0.78911  0.34826  1.0000
  H   H80       1.0  0.39589  0.69964  0.34782  1.0000
  C   C139      1.0  0.37310  0.76309  0.42854  1.0000
  C   C140      1.0  0.40334  0.76322  0.42993  1.0000
  C   C141      1.0  0.41904  0.76271  0.34830  1.0000
  O   O23       1.0  0.41388  0.75828  0.51119  1.0000
  H   H81       1.0  0.36069  0.75944  0.48836  1.0000
  H   H82       1.0  0.43380  0.77921  0.52661  1.0000
  C   C142      1.0  0.40370  0.64375  0.42839  1.0000
  C   C143      1.0  0.37362  0.61347  0.42938  1.0000
  C   C144      1.0  0.35748  0.59815  0.34741  1.0000
  O   O24       1.0  0.35812  0.60266  0.51051  1.0000
  H   H83       1.0  0.41246  0.65598  0.48843  1.0000
  H   H84       1.0  0.35938  0.58285  0.52561  1.0000
  C   C145      1.0  0.93824  0.19462  0.34728  1.0000
  C   C146      1.0  0.97318  0.21249  0.34690  1.0000
  H   H85       1.0  0.98416  0.19845  0.34612  1.0000
  C   C147      1.0  0.54744  0.30121  0.34676  1.0000
  C   C148      1.0  0.58238  0.31909  0.34695  1.0000
  H   H86       1.0  0.53645  0.31525  0.34615  1.0000
  C   C149      1.0  0.82255  0.24704  0.34693  1.0000
  C   C150      1.0  0.80467  0.26409  0.34691  1.0000
  H   H87       1.0  0.81871  0.28912  0.34638  1.0000
  C   C151      1.0  0.71594  0.24963  0.34680  1.0000
  C   C152      1.0  0.69806  0.26669  0.34687  1.0000
  H   H88       1.0  0.70190  0.22460  0.34619  1.0000
  C   C153      1.0  0.77017  0.07896  0.34646  1.0000
  C   C154      1.0  0.75311  0.04403  0.34689  1.0000
  H   H89       1.0  0.72808  0.03304  0.34650  1.0000
  C   C155      1.0  0.76755  0.46977  0.34716  1.0000
  C   C156      1.0  0.75049  0.43484  0.34737  1.0000
  H   H90       1.0  0.79257  0.48076  0.34641  1.0000
  C   C157      1.0  0.61692  0.25063  0.26583  1.0000
  C   C158      1.0  0.64698  0.25041  0.26446  1.0000
  C   C159      1.0  0.66316  0.25098  0.34616  1.0000
  H   H91       1.0  0.60809  0.25416  0.20595  1.0000
  O   O25       1.0  0.66244  0.25525  0.18323  1.0000
  H   H92       1.0  0.66131  0.23426  0.16788  1.0000
  C   C160      1.0  0.76638  0.36973  0.26591  1.0000
  C   C161      1.0  0.76656  0.39999  0.26484  1.0000
  C   C162      1.0  0.76619  0.41566  0.34668  1.0000
  H   H93       1.0  0.76255  0.35731  0.20603  1.0000
  O   O26       1.0  0.76143  0.41047  0.18371  1.0000
  H   H94       1.0  0.78223  0.43054  0.16831  1.0000
  C   C163      1.0  0.64754  0.40025  0.26624  1.0000
  C   C164      1.0  0.61727  0.37018  0.26468  1.0000
  C   C165      1.0  0.60157  0.35399  0.34627  1.0000
  H   H95       1.0  0.65994  0.40907  0.20643  1.0000
  O   O27       1.0  0.60673  0.35473  0.18339  1.0000
  H   H96       1.0  0.58687  0.35584  0.16788  1.0000
  C   C166      1.0  0.90369  0.26310  0.26618  1.0000
  C   C167      1.0  0.87360  0.26328  0.26469  1.0000
  C   C168      1.0  0.85746  0.26276  0.34637  1.0000
  H   H97       1.0  0.91242  0.25940  0.20639  1.0000
  O   O28       1.0  0.85813  0.25828  0.18339  1.0000
  H   H98       1.0  0.85893  0.27912  0.16810  1.0000
  C   C169      1.0  0.75423  0.14413  0.26549  1.0000
  C   C170      1.0  0.75403  0.11387  0.26412  1.0000
  C   C171      1.0  0.75447  0.09815  0.34577  1.0000
  H   H99       1.0  0.75785  0.15654  0.20568  1.0000
  O   O29       1.0  0.75897  0.10332  0.18288  1.0000
  H   H100      1.0  0.73806  0.08339  0.16749  1.0000
  C   C172      1.0  0.87313  0.11373  0.26547  1.0000
  C   C173      1.0  0.90340  0.14381  0.26456  1.0000
  C   C174      1.0  0.91904  0.15972  0.34657  1.0000
  H   H101      1.0  0.86069  0.10519  0.20562  1.0000
  O   O30       1.0  0.91388  0.15950  0.18353  1.0000
  H   H102      1.0  0.93399  0.15885  0.16812  1.0000
  C   C175      1.0  0.99238  0.24789  0.34729  1.0000
  C   C176      1.0  0.97318  0.26408  0.34774  1.0000
  C   C177      1.0  0.93824  0.24702  0.34773  1.0000
  C   C178      1.0  0.92125  0.21232  0.34770  1.0000
  H   H103      1.0  0.98417  0.28911  0.34826  1.0000
  H   H104      1.0  0.89589  0.19964  0.34782  1.0000
  C   C179      1.0  0.52823  0.26581  0.34722  1.0000
  C   C180      1.0  0.59937  0.30137  0.34702  1.0000
  C   C181      1.0  0.58238  0.26668  0.34728  1.0000
  C   C182      1.0  0.54744  0.24962  0.34765  1.0000
  H   H105      1.0  0.62473  0.31405  0.34697  1.0000
  H   H106      1.0  0.53645  0.22459  0.34838  1.0000
  C   C183      1.0  0.76927  0.24790  0.34736  1.0000
  C   C184      1.0  0.75308  0.21251  0.34771  1.0000
  C   C185      1.0  0.77014  0.19464  0.34718  1.0000
  C   C186      1.0  0.80484  0.21234  0.34689  1.0000
  H   H107      1.0  0.72805  0.19847  0.34841  1.0000
  H   H108      1.0  0.81752  0.19966  0.34675  1.0000
  C   C187      1.0  0.75134  0.26581  0.34736  1.0000
  C   C188      1.0  0.71578  0.30138  0.34681  1.0000
  C   C189      1.0  0.75047  0.31909  0.34718  1.0000
  C   C190      1.0  0.76753  0.30121  0.34784  1.0000
  H   H109      1.0  0.70310  0.31407  0.34664  1.0000
  H   H110      1.0  0.79256  0.31525  0.34866  1.0000
  C   C191      1.0  0.76929  0.02482  0.34752  1.0000
  C   C192      1.0  0.80469  0.04402  0.34793  1.0000
  C   C193      1.0  0.82257  0.07896  0.34682  1.0000
  C   C194      1.0  0.80487  0.09595  0.34614  1.0000
  H   H111      1.0  0.81873  0.03303  0.34898  1.0000
  H   H112      1.0  0.81756  0.12131  0.34575  1.0000
  C   C195      1.0  0.75136  0.48897  0.34766  1.0000
  C   C196      1.0  0.71579  0.41784  0.34765  1.0000
  C   C197      1.0  0.69808  0.43483  0.34778  1.0000
  C   C198      1.0  0.71596  0.46977  0.34808  1.0000
  H   H113      1.0  0.70311  0.39248  0.34766  1.0000
  H   H114      1.0  0.70192  0.48076  0.34871  1.0000
  C   C199      1.0  0.64751  0.25078  0.42826  1.0000
  C   C200      1.0  0.61719  0.25049  0.42970  1.0000
  C   C201      1.0  0.60157  0.25096  0.34795  1.0000
  O   O31       1.0  0.60671  0.25552  0.51095  1.0000
  H   H115      1.0  0.65991  0.25438  0.48809  1.0000
  H   H116      1.0  0.58665  0.23469  0.52622  1.0000
  C   C202      1.0  0.76674  0.40027  0.42851  1.0000
  C   C203      1.0  0.76691  0.37018  0.42960  1.0000
  C   C204      1.0  0.76618  0.35397  0.34780  1.0000
  O   O32       1.0  0.76214  0.35470  0.51079  1.0000
  H   H117      1.0  0.76321  0.40901  0.48851  1.0000
  H   H118      1.0  0.78316  0.35586  0.52598  1.0000
  C   C205      1.0  0.61694  0.36964  0.42845  1.0000
  C   C206      1.0  0.64697  0.39996  0.43000  1.0000
  C   C207      1.0  0.66318  0.41564  0.34841  1.0000
  O   O33       1.0  0.66240  0.41043  0.51134  1.0000
  H   H119      1.0  0.60810  0.35724  0.48824  1.0000
  H   H120      1.0  0.66163  0.43048  0.52656  1.0000
  C   C208      1.0  0.87310  0.26309  0.42854  1.0000
  C   C209      1.0  0.90334  0.26322  0.42993  1.0000
  C   C210      1.0  0.91904  0.26271  0.34830  1.0000
  O   O34       1.0  0.91388  0.25828  0.51119  1.0000
  H   H121      1.0  0.86069  0.25944  0.48836  1.0000
  H   H122      1.0  0.93380  0.27921  0.52661  1.0000
  C   C211      1.0  0.75408  0.11353  0.42784  1.0000
  C   C212      1.0  0.75379  0.14355  0.42934  1.0000
  C   C213      1.0  0.75441  0.15973  0.34763  1.0000
  O   O35       1.0  0.75868  0.15898  0.51067  1.0000
  H   H123      1.0  0.75760  0.10468  0.48770  1.0000
  H   H124      1.0  0.73782  0.15818  0.52573  1.0000
  C   C214      1.0  0.90370  0.14375  0.42839  1.0000
  C   C215      1.0  0.87362  0.11347  0.42938  1.0000
  C   C216      1.0  0.85748  0.09814  0.34741  1.0000
  O   O36       1.0  0.85812  0.10266  0.51051  1.0000
  H   H125      1.0  0.91246  0.15599  0.48843  1.0000
  H   H126      1.0  0.85938  0.08285  0.52561  1.0000
  C   C217      1.0  0.93824  0.69462  0.34728  1.0000
  C   C218      1.0  0.97318  0.71249  0.34690  1.0000
  H   H127      1.0  0.98416  0.69846  0.34612  1.0000
  C   C219      1.0  0.54744  0.80121  0.34676  1.0000
  C   C220      1.0  0.58238  0.81909  0.34695  1.0000
  H   H128      1.0  0.53646  0.81525  0.34615  1.0000
  C   C221      1.0  0.82255  0.74704  0.34693  1.0000
  C   C222      1.0  0.80467  0.76409  0.34691  1.0000
  H   H129      1.0  0.81871  0.78912  0.34638  1.0000
  C   C223      1.0  0.71594  0.74963  0.34680  1.0000
  C   C224      1.0  0.69806  0.76669  0.34687  1.0000
  H   H130      1.0  0.70190  0.72460  0.34619  1.0000
  C   C225      1.0  0.77017  0.57896  0.34646  1.0000
  C   C226      1.0  0.75311  0.54403  0.34689  1.0000
  H   H131      1.0  0.72808  0.53304  0.34650  1.0000
  C   C227      1.0  0.76755  0.96977  0.34716  1.0000
  C   C228      1.0  0.75049  0.93484  0.34737  1.0000
  H   H132      1.0  0.79257  0.98076  0.34641  1.0000
  C   C229      1.0  0.61691  0.75063  0.26583  1.0000
  C   C230      1.0  0.64698  0.75041  0.26446  1.0000
  C   C231      1.0  0.66316  0.75098  0.34616  1.0000
  H   H133      1.0  0.60809  0.75416  0.20595  1.0000
  O   O37       1.0  0.66244  0.75525  0.18323  1.0000
  H   H134      1.0  0.66131  0.73426  0.16788  1.0000
  C   C232      1.0  0.76637  0.86972  0.26591  1.0000
  C   C233      1.0  0.76656  0.89999  0.26484  1.0000
  C   C234      1.0  0.76619  0.91566  0.34668  1.0000
  H   H135      1.0  0.76255  0.85731  0.20603  1.0000
  O   O38       1.0  0.76143  0.91047  0.18371  1.0000
  H   H136      1.0  0.78222  0.93054  0.16831  1.0000
  C   C235      1.0  0.64754  0.90025  0.26624  1.0000
  C   C236      1.0  0.61726  0.87018  0.26468  1.0000
  C   C237      1.0  0.60157  0.85399  0.34627  1.0000
  H   H137      1.0  0.65994  0.90907  0.20643  1.0000
  O   O39       1.0  0.60673  0.85473  0.18339  1.0000
  H   H138      1.0  0.58687  0.85584  0.16788  1.0000
  C   C238      1.0  0.90369  0.76310  0.26618  1.0000
  C   C239      1.0  0.87360  0.76328  0.26469  1.0000
  C   C240      1.0  0.85746  0.76276  0.34637  1.0000
  H   H139      1.0  0.91241  0.75940  0.20639  1.0000
  O   O40       1.0  0.85813  0.75828  0.18339  1.0000
  H   H140      1.0  0.85893  0.77912  0.16810  1.0000
  C   C241      1.0  0.75422  0.64413  0.26549  1.0000
  C   C242      1.0  0.75403  0.61387  0.26412  1.0000
  C   C243      1.0  0.75447  0.59815  0.34577  1.0000
  H   H141      1.0  0.75785  0.65654  0.20568  1.0000
  O   O41       1.0  0.75897  0.60332  0.18288  1.0000
  H   H142      1.0  0.73806  0.58339  0.16749  1.0000
  C   C244      1.0  0.87313  0.61373  0.26547  1.0000
  C   C245      1.0  0.90340  0.64381  0.26456  1.0000
  C   C246      1.0  0.91904  0.65972  0.34657  1.0000
  H   H143      1.0  0.86069  0.60519  0.20562  1.0000
  O   O42       1.0  0.91388  0.65950  0.18353  1.0000
  H   H144      1.0  0.93399  0.65885  0.16812  1.0000
  C   C247      1.0  0.99238  0.74789  0.34729  1.0000
  C   C248      1.0  0.97318  0.76408  0.34774  1.0000
  C   C249      1.0  0.93824  0.74702  0.34773  1.0000
  C   C250      1.0  0.92125  0.71232  0.34770  1.0000
  H   H145      1.0  0.98417  0.78911  0.34826  1.0000
  H   H146      1.0  0.89589  0.69964  0.34782  1.0000
  C   C251      1.0  0.52823  0.76581  0.34722  1.0000
  C   C252      1.0  0.59937  0.80137  0.34702  1.0000
  C   C253      1.0  0.58238  0.76668  0.34728  1.0000
  C   C254      1.0  0.54744  0.74962  0.34765  1.0000
  H   H147      1.0  0.62473  0.81405  0.34697  1.0000
  H   H148      1.0  0.53645  0.72459  0.34838  1.0000
  C   C255      1.0  0.76927  0.74790  0.34736  1.0000
  C   C256      1.0  0.75308  0.71251  0.34771  1.0000
  C   C257      1.0  0.77014  0.69463  0.34718  1.0000
  C   C258      1.0  0.80484  0.71234  0.34689  1.0000
  H   H149      1.0  0.72805  0.69847  0.34841  1.0000
  H   H150      1.0  0.81752  0.69966  0.34675  1.0000
  C   C259      1.0  0.75134  0.76582  0.34736  1.0000
  C   C260      1.0  0.71578  0.80139  0.34681  1.0000
  C   C261      1.0  0.75047  0.81909  0.34718  1.0000
  C   C262      1.0  0.76753  0.80121  0.34784  1.0000
  H   H151      1.0  0.70310  0.81407  0.34664  1.0000
  H   H152      1.0  0.79256  0.81525  0.34866  1.0000
  C   C263      1.0  0.76929  0.52482  0.34752  1.0000
  C   C264      1.0  0.80469  0.54402  0.34793  1.0000
  C   C265      1.0  0.82257  0.57896  0.34682  1.0000
  C   C266      1.0  0.80487  0.59595  0.34614  1.0000
  H   H153      1.0  0.81873  0.53303  0.34898  1.0000
  H   H154      1.0  0.81756  0.62131  0.34575  1.0000
  C   C267      1.0  0.75136  0.98898  0.34766  1.0000
  C   C268      1.0  0.71579  0.91784  0.34765  1.0000
  C   C269      1.0  0.69808  0.93483  0.34778  1.0000
  C   C270      1.0  0.71596  0.96977  0.34808  1.0000
  H   H155      1.0  0.70311  0.89248  0.34766  1.0000
  H   H156      1.0  0.70192  0.98076  0.34871  1.0000
  C   C271      1.0  0.64751  0.75078  0.42826  1.0000
  C   C272      1.0  0.61719  0.75049  0.42970  1.0000
  C   C273      1.0  0.60156  0.75096  0.34795  1.0000
  O   O43       1.0  0.60671  0.75552  0.51095  1.0000
  H   H157      1.0  0.65991  0.75438  0.48809  1.0000
  H   H158      1.0  0.58665  0.73469  0.52622  1.0000
  C   C274      1.0  0.76674  0.90027  0.42851  1.0000
  C   C275      1.0  0.76691  0.87018  0.42960  1.0000
  C   C276      1.0  0.76618  0.85397  0.34780  1.0000
  O   O44       1.0  0.76214  0.85470  0.51079  1.0000
  H   H159      1.0  0.76320  0.90901  0.48851  1.0000
  H   H160      1.0  0.78316  0.85586  0.52598  1.0000
  C   C277      1.0  0.61695  0.86964  0.42845  1.0000
  C   C278      1.0  0.64697  0.89996  0.43000  1.0000
  C   C279      1.0  0.66318  0.91564  0.34841  1.0000
  O   O45       1.0  0.66240  0.91043  0.51134  1.0000
  H   H161      1.0  0.60810  0.85724  0.48824  1.0000
  H   H162      1.0  0.66163  0.93048  0.52656  1.0000
  C   C280      1.0  0.87310  0.76309  0.42854  1.0000
  C   C281      1.0  0.90334  0.76322  0.42993  1.0000
  C   C282      1.0  0.91904  0.76271  0.34830  1.0000
  O   O46       1.0  0.91388  0.75828  0.51119  1.0000
  H   H163      1.0  0.86069  0.75944  0.48836  1.0000
  H   H164      1.0  0.93380  0.77921  0.52661  1.0000
  C   C283      1.0  0.75408  0.61353  0.42784  1.0000
  C   C284      1.0  0.75379  0.64355  0.42934  1.0000
  C   C285      1.0  0.75441  0.65973  0.34763  1.0000
  O   O47       1.0  0.75868  0.65898  0.51067  1.0000
  H   H165      1.0  0.75760  0.60468  0.48770  1.0000
  H   H166      1.0  0.73782  0.65818  0.52573  1.0000
  C   C286      1.0  0.90370  0.64375  0.42839  1.0000
  C   C287      1.0  0.87362  0.61347  0.42938  1.0000
  C   C288      1.0  0.85748  0.59815  0.34741  1.0000
  O   O48       1.0  0.85812  0.60266  0.51051  1.0000
  H   H167      1.0  0.91246  0.65598  0.48843  1.0000
  H   H168      1.0  0.85938  0.58285  0.52561  1.0000
