data_image0
_chemical_formula_structural       C2HC2H3CNHCHCNHCHC4H3C4H3C3NH5C6N2H6C6N2H6N12C3HN2H2C3HNC3NH3C3HNC3NH3C3HC4HCH3C5H3C4HCH3C4HCH3C4HCH3C3NH5C6N2H6C6N2H6N12C3HN2H2C3HNC3NH3C3HNC3NH3C3HC4HCH3C5H3C4HCH3C4HCH3C4HCH3C6N2H5C6N2H6C6N2H6N12C3HNC3NH3C3HNC3NH3C3HNC3NH3C4HCH3C4HCH3C4HCH3C4HCH3C4HCH3C4HCH3C6N2H5C6N2H6C6N2H6N12C3HNC3NH3C3HNC3NH3C3HNC3NH3C4HCH3C4HCH3C4HCH3C4HCH3C4HCH3C4HCH3
_chemical_formula_sum              "C264 H216 N96"
_cell_length_a       45.8142
_cell_length_b       45.8142
_cell_length_c       14.9413
_cell_angle_alpha    90
_cell_angle_beta     90
_cell_angle_gamma    120

_space_group_name_H-M_alt    "P 1"
_space_group_IT_number       1

loop_
  _space_group_symop_operation_xyz
  'x, y, z'

loop_
  _atom_site_type_symbol
  _atom_site_label
  _atom_site_symmetry_multiplicity
  _atom_site_fract_x
  _atom_site_fract_y
  _atom_site_fract_z
  _atom_site_occupancy
  C   C1        1.0  0.02098  0.25847  0.31818  1.0000
  C   C2        1.0  0.03504  0.23697  0.32924  1.0000
  H   H1        1.0  0.02095  0.21159  0.32084  1.0000
  C   C3        1.0  0.02098  0.75847  0.31818  1.0000
  C   C4        1.0  0.03504  0.73697  0.32924  1.0000
  H   H2        1.0  0.02095  0.71159  0.32084  1.0000
  H   H3        1.0  0.02422  0.30438  0.21131  1.0000
  H   H4        1.0  0.02422  0.80438  0.21131  1.0000
  C   C5        1.0  0.04565  0.29382  0.31658  1.0000
  N   N1        1.0  0.04179  0.31415  0.25671  1.0000
  H   H5        1.0  0.05973  0.33685  0.24406  1.0000
  C   C6        1.0  0.06700  0.24804  0.36763  1.0000
  H   H6        1.0  0.05311  0.17642  0.43415  1.0000
  C   C7        1.0  0.04565  0.79382  0.31658  1.0000
  N   N2        1.0  0.04179  0.81414  0.25671  1.0000
  H   H7        1.0  0.05973  0.83685  0.24406  1.0000
  C   C8        1.0  0.06700  0.74804  0.36763  1.0000
  H   H8        1.0  0.05311  0.67643  0.43415  1.0000
  C   C9        1.0  0.07700  0.30585  0.36291  1.0000
  C   C10       1.0  0.08392  0.28137  0.40115  1.0000
  C   C11       1.0  0.08798  0.23592  0.33372  1.0000
  C   C12       1.0  0.07769  0.19523  0.46019  1.0000
  H   H9        1.0  0.08897  0.18191  0.49277  1.0000
  H   H10       1.0  0.07400  0.21021  0.51087  1.0000
  H   H11       1.0  0.08020  0.36805  0.38849  1.0000
  C   C13       1.0  0.07700  0.80585  0.36291  1.0000
  C   C14       1.0  0.08392  0.78137  0.40115  1.0000
  C   C15       1.0  0.08798  0.73591  0.33372  1.0000
  C   C16       1.0  0.07769  0.69523  0.46019  1.0000
  H   H12       1.0  0.08897  0.68191  0.49277  1.0000
  H   H13       1.0  0.07399  0.71021  0.51087  1.0000
  H   H14       1.0  0.08020  0.86805  0.38849  1.0000
  C   C17       1.0  0.48496  0.24548  0.31833  1.0000
  C   C18       1.0  0.42883  0.19812  0.36274  1.0000
  C   C19       1.0  0.46024  0.21013  0.31665  1.0000
  N   N3        1.0  0.46418  0.18979  0.25694  1.0000
  H   H15       1.0  0.98166  0.19967  0.21139  1.0000
  H   H16       1.0  0.44599  0.16726  0.24381  1.0000
  H   H17       1.0  0.52422  0.30438  0.21131  1.0000
  H   H18       1.0  0.11651  0.31032  0.49955  1.0000
  H   H19       1.0  0.38948  0.19370  0.49975  1.0000
  C   C20       1.0  0.26289  0.24364  0.30513  1.0000
  C   C21       1.0  0.31777  0.24415  0.31044  1.0000
  C   C22       1.0  0.29865  0.26006  0.28724  1.0000
  C   C23       1.0  0.24302  0.26026  0.30509  1.0000
  C   C24       1.0  0.20726  0.24384  0.28725  1.0000
  C   C25       1.0  0.18816  0.25980  0.31021  1.0000
  N   N4        1.0  0.31401  0.28881  0.23687  1.0000
  N   N5        1.0  0.19187  0.21502  0.23714  1.0000
  H   H20       1.0  0.30073  0.29619  0.20321  1.0000
  H   H21       1.0  0.33747  0.29910  0.21875  1.0000
  H   H22       1.0  0.16844  0.20483  0.21885  1.0000
  H   H23       1.0  0.20516  0.20766  0.20344  1.0000
  H   H24       1.0  0.16568  0.29535  0.39646  1.0000
  H   H25       1.0  0.34030  0.20874  0.39709  1.0000
  C   C26       1.0  0.25964  0.01987  0.34201  1.0000
  C   C27       1.0  0.24935  0.06712  0.37149  1.0000
  C   C28       1.0  0.23982  0.03582  0.32808  1.0000
  C   C29       1.0  0.24628  0.48400  0.34215  1.0000
  C   C30       1.0  0.26607  0.46801  0.32816  1.0000
  C   C31       1.0  0.25650  0.43666  0.37136  1.0000
  N   N6        1.0  0.21295  0.02189  0.27111  1.0000
  N   N7        1.0  0.29297  0.48198  0.27130  1.0000
  H   H26       1.0  0.20882  0.50306  0.23268  1.0000
  H   H27       1.0  0.19926  0.03222  0.25977  1.0000
  H   H28       1.0  0.30656  0.47155  0.25972  1.0000
  H   H29       1.0  0.29706  0.00077  0.23277  1.0000
  H   H30       1.0  0.23418  0.39061  0.49992  1.0000
  H   H31       1.0  0.27157  0.11313  0.50014  1.0000
  N   N8        1.0  0.10987  0.25638  0.26982  1.0000
  N   N9        1.0  0.13960  0.26007  0.25523  1.0000
  N   N10       1.0  0.24339  0.36153  0.27640  1.0000
  N   N11       1.0  0.24788  0.39185  0.28109  1.0000
  N   N12       1.0  0.16264  0.37228  0.36028  1.0000
  N   N13       1.0  0.13516  0.34385  0.35113  1.0000
  N   N14       1.0  0.39602  0.24752  0.27024  1.0000
  N   N15       1.0  0.36630  0.24381  0.25541  1.0000
  N   N16       1.0  0.26262  0.14239  0.27714  1.0000
  N   N17       1.0  0.25800  0.11203  0.28188  1.0000
  N   N18       1.0  0.34320  0.13164  0.36073  1.0000
  N   N19       1.0  0.37067  0.16008  0.35153  1.0000
  C   C32       1.0  0.47097  0.26703  0.32970  1.0000
  C   C33       1.0  0.43903  0.25600  0.36793  1.0000
  C   C34       1.0  0.42196  0.22262  0.40114  1.0000
  H   H32       1.0  0.48503  0.29238  0.32086  1.0000
  N   N20       1.0  0.39857  0.21486  0.46730  1.0000
  N   N21       1.0  0.10733  0.28911  0.46721  1.0000
  H   H33       1.0  0.11045  0.27181  0.49561  1.0000
  H   H34       1.0  0.39577  0.23231  0.49606  1.0000
  C   C35       1.0  0.24709  0.20880  0.32819  1.0000
  C   C36       1.0  0.26450  0.19074  0.33401  1.0000
  C   C37       1.0  0.30031  0.20974  0.33867  1.0000
  H   H35       1.0  0.22179  0.19548  0.33893  1.0000
  N   N22       1.0  0.31697  0.19538  0.37938  1.0000
  C   C38       1.0  0.20564  0.29424  0.33818  1.0000
  C   C39       1.0  0.24146  0.31321  0.33351  1.0000
  C   C40       1.0  0.25884  0.29513  0.32787  1.0000
  N   N23       1.0  0.18902  0.30867  0.37873  1.0000
  H   H36       1.0  0.28414  0.30844  0.33861  1.0000
  H   H37       1.0  0.20126  0.33021  0.40919  1.0000
  H   H38       1.0  0.30475  0.17386  0.40998  1.0000
  C   C41       1.0  0.29393  0.04172  0.36652  1.0000
  C   C42       1.0  0.30635  0.07562  0.39117  1.0000
  C   C43       1.0  0.28123  0.08391  0.41519  1.0000
  H   H39       1.0  0.31011  0.03276  0.36882  1.0000
  N   N24       1.0  0.28876  0.10888  0.47646  1.0000
  C   C44       1.0  0.22461  0.41992  0.41504  1.0000
  C   C45       1.0  0.19952  0.42825  0.39109  1.0000
  C   C46       1.0  0.21198  0.46217  0.36654  1.0000
  N   N25       1.0  0.21703  0.39492  0.47624  1.0000
  H   H40       1.0  0.19579  0.47112  0.36868  1.0000
  H   H41       1.0  0.19639  0.38568  0.51140  1.0000
  H   H42       1.0  0.30939  0.11813  0.51166  1.0000
  C   C47       1.0  0.15241  0.24359  0.30208  1.0000
  C   C48       1.0  0.13094  0.22053  0.36763  1.0000
  C   C49       1.0  0.09882  0.21703  0.38567  1.0000
  H   H43       1.0  0.14047  0.20979  0.41000  1.0000
  C   C50       1.0  0.26841  0.41502  0.34184  1.0000
  C   C51       1.0  0.28637  0.40502  0.39944  1.0000
  C   C52       1.0  0.28186  0.37195  0.39497  1.0000
  C   C53       1.0  0.25816  0.34908  0.33170  1.0000
  H   H44       1.0  0.29949  0.42050  0.45175  1.0000
  C   C54       1.0  0.29717  0.36083  0.46515  1.0000
  H   H45       1.0  0.31121  0.38042  0.51479  1.0000
  H   H46       1.0  0.31474  0.35432  0.43444  1.0000
  H   H47       1.0  0.27760  0.33889  0.50049  1.0000
  C   C55       1.0  0.10408  0.33980  0.36272  1.0000
  C   C56       1.0  0.10307  0.36978  0.37772  1.0000
  C   C57       1.0  0.13350  0.40142  0.38768  1.0000
  C   C58       1.0  0.16508  0.40211  0.38315  1.0000
  C   C59       1.0  0.13089  0.43142  0.41235  1.0000
  H   H48       1.0  0.10516  0.42501  0.42922  1.0000
  H   H49       1.0  0.13889  0.44890  0.35611  1.0000
  H   H50       1.0  0.14662  0.44390  0.47057  1.0000
  C   C60       1.0  0.35352  0.26033  0.30212  1.0000
  C   C61       1.0  0.37491  0.28339  0.36773  1.0000
  C   C62       1.0  0.40705  0.28693  0.38580  1.0000
  C   C63       1.0  0.41794  0.26802  0.33414  1.0000
  H   H51       1.0  0.36543  0.29425  0.40987  1.0000
  C   C64       1.0  0.42818  0.30881  0.46020  1.0000
  H   H52       1.0  0.41688  0.32214  0.49267  1.0000
  H   H53       1.0  0.45274  0.32761  0.43408  1.0000
  H   H54       1.0  0.43191  0.29389  0.51101  1.0000
  C   C65       1.0  0.23735  0.08871  0.34231  1.0000
  C   C66       1.0  0.21936  0.09883  0.39945  1.0000
  C   C67       1.0  0.22398  0.13195  0.39514  1.0000
  C   C68       1.0  0.24789  0.15488  0.33237  1.0000
  H   H55       1.0  0.20628  0.08342  0.45188  1.0000
  C   C69       1.0  0.20861  0.14306  0.46521  1.0000
  H   H56       1.0  0.19449  0.12344  0.51473  1.0000
  H   H57       1.0  0.19109  0.14961  0.43439  1.0000
  H   H58       1.0  0.22815  0.16495  0.50074  1.0000
  C   C70       1.0  0.40177  0.16415  0.36279  1.0000
  C   C71       1.0  0.40280  0.13416  0.37754  1.0000
  C   C72       1.0  0.37239  0.10251  0.38746  1.0000
  C   C73       1.0  0.34079  0.10179  0.38332  1.0000
  H   H59       1.0  0.42569  0.13591  0.38788  1.0000
  C   C74       1.0  0.37506  0.07250  0.41164  1.0000
  H   H60       1.0  0.40081  0.07891  0.42817  1.0000
  H   H61       1.0  0.36699  0.05507  0.35528  1.0000
  H   H62       1.0  0.35941  0.05997  0.46995  1.0000
  C   C75       1.0  0.48496  0.74548  0.31833  1.0000
  C   C76       1.0  0.42883  0.69812  0.36274  1.0000
  C   C77       1.0  0.46024  0.71013  0.31665  1.0000
  N   N26       1.0  0.46418  0.68979  0.25694  1.0000
  H   H63       1.0  0.98166  0.69967  0.21139  1.0000
  H   H64       1.0  0.44598  0.66726  0.24381  1.0000
  H   H65       1.0  0.52422  0.80438  0.21131  1.0000
  H   H66       1.0  0.11651  0.81032  0.49955  1.0000
  H   H67       1.0  0.38948  0.69370  0.49975  1.0000
  C   C78       1.0  0.26289  0.74364  0.30513  1.0000
  C   C79       1.0  0.31777  0.74415  0.31044  1.0000
  C   C80       1.0  0.29865  0.76006  0.28724  1.0000
  C   C81       1.0  0.24302  0.76026  0.30509  1.0000
  C   C82       1.0  0.20726  0.74384  0.28725  1.0000
  C   C83       1.0  0.18815  0.75980  0.31021  1.0000
  N   N27       1.0  0.31401  0.78881  0.23687  1.0000
  N   N28       1.0  0.19188  0.71502  0.23714  1.0000
  H   H68       1.0  0.30073  0.79619  0.20321  1.0000
  H   H69       1.0  0.33747  0.79910  0.21875  1.0000
  H   H70       1.0  0.16844  0.70483  0.21885  1.0000
  H   H71       1.0  0.20516  0.70766  0.20344  1.0000
  H   H72       1.0  0.16568  0.79535  0.39646  1.0000
  H   H73       1.0  0.34030  0.70874  0.39709  1.0000
  C   C84       1.0  0.25964  0.51987  0.34201  1.0000
  C   C85       1.0  0.24935  0.56712  0.37149  1.0000
  C   C86       1.0  0.23982  0.53582  0.32808  1.0000
  C   C87       1.0  0.24628  0.98400  0.34215  1.0000
  C   C88       1.0  0.26607  0.96801  0.32816  1.0000
  C   C89       1.0  0.25650  0.93666  0.37136  1.0000
  N   N29       1.0  0.21295  0.52188  0.27111  1.0000
  N   N30       1.0  0.29297  0.98198  0.27130  1.0000
  H   H74       1.0  0.20882  0.00306  0.23268  1.0000
  H   H75       1.0  0.19926  0.53222  0.25977  1.0000
  H   H76       1.0  0.30656  0.97155  0.25972  1.0000
  H   H77       1.0  0.29706  0.50077  0.23277  1.0000
  H   H78       1.0  0.23418  0.89061  0.49992  1.0000
  H   H79       1.0  0.27157  0.61313  0.50014  1.0000
  N   N31       1.0  0.10987  0.75638  0.26982  1.0000
  N   N32       1.0  0.13960  0.76007  0.25523  1.0000
  N   N33       1.0  0.24339  0.86154  0.27640  1.0000
  N   N34       1.0  0.24788  0.89185  0.28109  1.0000
  N   N35       1.0  0.16264  0.87228  0.36028  1.0000
  N   N36       1.0  0.13516  0.84385  0.35113  1.0000
  N   N37       1.0  0.39602  0.74752  0.27024  1.0000
  N   N38       1.0  0.36630  0.74382  0.25541  1.0000
  N   N39       1.0  0.26262  0.64238  0.27714  1.0000
  N   N40       1.0  0.25800  0.61203  0.28188  1.0000
  N   N41       1.0  0.34320  0.63164  0.36073  1.0000
  N   N42       1.0  0.37067  0.66008  0.35153  1.0000
  C   C90       1.0  0.47097  0.76702  0.32970  1.0000
  C   C91       1.0  0.43903  0.75600  0.36793  1.0000
  C   C92       1.0  0.42196  0.72262  0.40114  1.0000
  H   H80       1.0  0.48503  0.79238  0.32086  1.0000
  N   N43       1.0  0.39857  0.71486  0.46730  1.0000
  N   N44       1.0  0.10733  0.78911  0.46721  1.0000
  H   H81       1.0  0.11044  0.77180  0.49561  1.0000
  H   H82       1.0  0.39577  0.73231  0.49606  1.0000
  C   C93       1.0  0.24709  0.70880  0.32819  1.0000
  C   C94       1.0  0.26450  0.69074  0.33401  1.0000
  C   C95       1.0  0.30031  0.70974  0.33867  1.0000
  H   H83       1.0  0.22179  0.69548  0.33893  1.0000
  N   N45       1.0  0.31697  0.69538  0.37938  1.0000
  C   C96       1.0  0.20564  0.79424  0.33818  1.0000
  C   C97       1.0  0.24146  0.81321  0.33351  1.0000
  C   C98       1.0  0.25884  0.79513  0.32787  1.0000
  N   N46       1.0  0.18902  0.80867  0.37873  1.0000
  H   H84       1.0  0.28414  0.80844  0.33861  1.0000
  H   H85       1.0  0.20126  0.83021  0.40919  1.0000
  H   H86       1.0  0.30475  0.67386  0.40998  1.0000
  C   C99       1.0  0.29393  0.54172  0.36652  1.0000
  C   C100      1.0  0.30635  0.57562  0.39117  1.0000
  C   C101      1.0  0.28123  0.58391  0.41519  1.0000
  H   H87       1.0  0.31011  0.53276  0.36882  1.0000
  N   N47       1.0  0.28876  0.60888  0.47646  1.0000
  C   C102      1.0  0.22461  0.91992  0.41504  1.0000
  C   C103      1.0  0.19952  0.92826  0.39109  1.0000
  C   C104      1.0  0.21198  0.96217  0.36654  1.0000
  N   N48       1.0  0.21703  0.89492  0.47624  1.0000
  H   H88       1.0  0.19579  0.97112  0.36868  1.0000
  H   H89       1.0  0.19639  0.88568  0.51140  1.0000
  H   H90       1.0  0.30939  0.61813  0.51166  1.0000
  C   C105      1.0  0.15241  0.74359  0.30208  1.0000
  C   C106      1.0  0.13094  0.72053  0.36763  1.0000
  C   C107      1.0  0.09882  0.71703  0.38567  1.0000
  H   H91       1.0  0.14047  0.70979  0.41000  1.0000
  C   C108      1.0  0.26842  0.91502  0.34184  1.0000
  C   C109      1.0  0.28637  0.90502  0.39944  1.0000
  C   C110      1.0  0.28186  0.87196  0.39497  1.0000
  C   C111      1.0  0.25816  0.84908  0.33170  1.0000
  H   H92       1.0  0.29949  0.92050  0.45175  1.0000
  C   C112      1.0  0.29717  0.86083  0.46515  1.0000
  H   H93       1.0  0.31121  0.88042  0.51479  1.0000
  H   H94       1.0  0.31474  0.85432  0.43444  1.0000
  H   H95       1.0  0.27760  0.83889  0.50049  1.0000
  C   C113      1.0  0.10408  0.83980  0.36272  1.0000
  C   C114      1.0  0.10307  0.86978  0.37772  1.0000
  C   C115      1.0  0.13350  0.90142  0.38768  1.0000
  C   C116      1.0  0.16508  0.90211  0.38315  1.0000
  C   C117      1.0  0.13089  0.93142  0.41235  1.0000
  H   H96       1.0  0.10516  0.92500  0.42922  1.0000
  H   H97       1.0  0.13889  0.94890  0.35611  1.0000
  H   H98       1.0  0.14662  0.94390  0.47057  1.0000
  C   C118      1.0  0.35352  0.76034  0.30212  1.0000
  C   C119      1.0  0.37491  0.78339  0.36773  1.0000
  C   C120      1.0  0.40705  0.78693  0.38580  1.0000
  C   C121      1.0  0.41794  0.76802  0.33414  1.0000
  H   H99       1.0  0.36543  0.79425  0.40987  1.0000
  C   C122      1.0  0.42818  0.80881  0.46020  1.0000
  H   H100      1.0  0.41688  0.82214  0.49267  1.0000
  H   H101      1.0  0.45274  0.82761  0.43408  1.0000
  H   H102      1.0  0.43191  0.79390  0.51101  1.0000
  C   C123      1.0  0.23735  0.58871  0.34231  1.0000
  C   C124      1.0  0.21936  0.59883  0.39945  1.0000
  C   C125      1.0  0.22398  0.63195  0.39514  1.0000
  C   C126      1.0  0.24789  0.65489  0.33237  1.0000
  H   H103      1.0  0.20628  0.58342  0.45188  1.0000
  C   C127      1.0  0.20861  0.64306  0.46521  1.0000
  H   H104      1.0  0.19449  0.62344  0.51473  1.0000
  H   H105      1.0  0.19109  0.64961  0.43439  1.0000
  H   H106      1.0  0.22815  0.66495  0.50074  1.0000
  C   C128      1.0  0.40177  0.66415  0.36279  1.0000
  C   C129      1.0  0.40280  0.63416  0.37754  1.0000
  C   C130      1.0  0.37239  0.60251  0.38746  1.0000
  C   C131      1.0  0.34079  0.60179  0.38332  1.0000
  H   H107      1.0  0.42569  0.63591  0.38788  1.0000
  C   C132      1.0  0.37506  0.57250  0.41164  1.0000
  H   H108      1.0  0.40081  0.57891  0.42817  1.0000
  H   H109      1.0  0.36699  0.55507  0.35528  1.0000
  H   H110      1.0  0.35941  0.55997  0.46995  1.0000
  C   C133      1.0  0.98496  0.24548  0.31833  1.0000
  C   C134      1.0  0.92883  0.19812  0.36274  1.0000
  C   C135      1.0  0.96024  0.21013  0.31665  1.0000
  C   C136      1.0  0.52099  0.25847  0.31818  1.0000
  C   C137      1.0  0.54565  0.29382  0.31658  1.0000
  C   C138      1.0  0.57700  0.30585  0.36291  1.0000
  N   N49       1.0  0.96418  0.18979  0.25694  1.0000
  N   N50       1.0  0.54179  0.31415  0.25671  1.0000
  H   H111      1.0  0.48166  0.19967  0.21139  1.0000
  H   H112      1.0  0.94598  0.16726  0.24381  1.0000
  H   H113      1.0  0.55973  0.33685  0.24406  1.0000
  H   H114      1.0  0.61651  0.31032  0.49955  1.0000
  H   H115      1.0  0.88948  0.19370  0.49975  1.0000
  C   C139      1.0  0.76289  0.24364  0.30513  1.0000
  C   C140      1.0  0.81777  0.24415  0.31044  1.0000
  C   C141      1.0  0.79865  0.26006  0.28724  1.0000
  C   C142      1.0  0.74302  0.26026  0.30509  1.0000
  C   C143      1.0  0.70726  0.24384  0.28725  1.0000
  C   C144      1.0  0.68815  0.25980  0.31021  1.0000
  N   N51       1.0  0.81401  0.28881  0.23687  1.0000
  N   N52       1.0  0.69188  0.21502  0.23714  1.0000
  H   H116      1.0  0.80073  0.29619  0.20321  1.0000
  H   H117      1.0  0.83747  0.29910  0.21875  1.0000
  H   H118      1.0  0.66844  0.20483  0.21885  1.0000
  H   H119      1.0  0.70517  0.20766  0.20344  1.0000
  H   H120      1.0  0.66568  0.29535  0.39646  1.0000
  H   H121      1.0  0.84030  0.20874  0.39709  1.0000
  C   C145      1.0  0.75963  0.01987  0.34201  1.0000
  C   C146      1.0  0.74935  0.06712  0.37149  1.0000
  C   C147      1.0  0.73982  0.03582  0.32808  1.0000
  C   C148      1.0  0.74628  0.48400  0.34215  1.0000
  C   C149      1.0  0.76607  0.46801  0.32816  1.0000
  C   C150      1.0  0.75650  0.43666  0.37136  1.0000
  N   N53       1.0  0.71295  0.02189  0.27111  1.0000
  N   N54       1.0  0.79297  0.48198  0.27130  1.0000
  H   H122      1.0  0.70882  0.50306  0.23268  1.0000
  H   H123      1.0  0.69926  0.03222  0.25977  1.0000
  H   H124      1.0  0.80656  0.47155  0.25972  1.0000
  H   H125      1.0  0.79705  0.00077  0.23277  1.0000
  H   H126      1.0  0.73418  0.39061  0.49992  1.0000
  H   H127      1.0  0.77157  0.11313  0.50014  1.0000
  N   N55       1.0  0.60987  0.25638  0.26982  1.0000
  N   N56       1.0  0.63960  0.26007  0.25523  1.0000
  N   N57       1.0  0.74339  0.36153  0.27640  1.0000
  N   N58       1.0  0.74788  0.39185  0.28109  1.0000
  N   N59       1.0  0.66264  0.37228  0.36028  1.0000
  N   N60       1.0  0.63516  0.34385  0.35113  1.0000
  N   N61       1.0  0.89602  0.24752  0.27024  1.0000
  N   N62       1.0  0.86630  0.24381  0.25541  1.0000
  N   N63       1.0  0.76262  0.14239  0.27714  1.0000
  N   N64       1.0  0.75800  0.11203  0.28188  1.0000
  N   N65       1.0  0.84320  0.13164  0.36073  1.0000
  N   N66       1.0  0.87067  0.16008  0.35153  1.0000
  C   C151      1.0  0.97097  0.26703  0.32970  1.0000
  C   C152      1.0  0.93903  0.25600  0.36793  1.0000
  C   C153      1.0  0.92196  0.22262  0.40114  1.0000
  H   H128      1.0  0.98503  0.29238  0.32086  1.0000
  N   N67       1.0  0.89857  0.21486  0.46730  1.0000
  C   C154      1.0  0.58392  0.28137  0.40115  1.0000
  C   C155      1.0  0.56701  0.24804  0.36763  1.0000
  C   C156      1.0  0.53504  0.23697  0.32924  1.0000
  N   N68       1.0  0.60732  0.28911  0.46721  1.0000
  H   H129      1.0  0.52095  0.21159  0.32084  1.0000
  H   H130      1.0  0.61045  0.27181  0.49561  1.0000
  H   H131      1.0  0.89577  0.23231  0.49606  1.0000
  C   C157      1.0  0.74709  0.20880  0.32819  1.0000
  C   C158      1.0  0.76450  0.19074  0.33401  1.0000
  C   C159      1.0  0.80031  0.20974  0.33867  1.0000
  H   H132      1.0  0.72179  0.19548  0.33893  1.0000
  N   N69       1.0  0.81697  0.19538  0.37938  1.0000
  C   C160      1.0  0.70564  0.29424  0.33818  1.0000
  C   C161      1.0  0.74146  0.31321  0.33351  1.0000
  C   C162      1.0  0.75884  0.29513  0.32787  1.0000
  N   N70       1.0  0.68902  0.30867  0.37873  1.0000
  H   H133      1.0  0.78414  0.30844  0.33861  1.0000
  H   H134      1.0  0.70126  0.33021  0.40919  1.0000
  H   H135      1.0  0.80475  0.17386  0.40998  1.0000
  C   C163      1.0  0.79393  0.04172  0.36652  1.0000
  C   C164      1.0  0.80635  0.07562  0.39117  1.0000
  C   C165      1.0  0.78123  0.08391  0.41519  1.0000
  H   H136      1.0  0.81011  0.03276  0.36882  1.0000
  N   N71       1.0  0.78876  0.10888  0.47646  1.0000
  C   C166      1.0  0.72461  0.41992  0.41504  1.0000
  C   C167      1.0  0.69952  0.42825  0.39109  1.0000
  C   C168      1.0  0.71198  0.46217  0.36654  1.0000
  N   N72       1.0  0.71703  0.39492  0.47624  1.0000
  H   H137      1.0  0.69579  0.47112  0.36868  1.0000
  H   H138      1.0  0.69639  0.38568  0.51140  1.0000
  H   H139      1.0  0.80939  0.11813  0.51166  1.0000
  C   C169      1.0  0.65241  0.24359  0.30208  1.0000
  C   C170      1.0  0.63094  0.22053  0.36763  1.0000
  C   C171      1.0  0.59882  0.21703  0.38567  1.0000
  C   C172      1.0  0.58798  0.23592  0.33372  1.0000
  H   H140      1.0  0.64048  0.20979  0.41000  1.0000
  C   C173      1.0  0.57769  0.19523  0.46019  1.0000
  H   H141      1.0  0.58897  0.18191  0.49277  1.0000
  H   H142      1.0  0.55311  0.17642  0.43415  1.0000
  H   H143      1.0  0.57400  0.21021  0.51087  1.0000
  C   C174      1.0  0.76841  0.41502  0.34184  1.0000
  C   C175      1.0  0.78637  0.40502  0.39944  1.0000
  C   C176      1.0  0.78186  0.37195  0.39497  1.0000
  C   C177      1.0  0.75816  0.34908  0.33170  1.0000
  H   H144      1.0  0.79949  0.42050  0.45175  1.0000
  C   C178      1.0  0.79717  0.36083  0.46515  1.0000
  H   H145      1.0  0.81121  0.38042  0.51479  1.0000
  H   H146      1.0  0.81474  0.35432  0.43444  1.0000
  H   H147      1.0  0.77760  0.33889  0.50049  1.0000
  C   C179      1.0  0.60408  0.33980  0.36272  1.0000
  C   C180      1.0  0.60308  0.36978  0.37772  1.0000
  C   C181      1.0  0.63350  0.40142  0.38768  1.0000
  C   C182      1.0  0.66508  0.40211  0.38315  1.0000
  H   H148      1.0  0.58020  0.36805  0.38849  1.0000
  C   C183      1.0  0.63089  0.43142  0.41235  1.0000
  H   H149      1.0  0.60516  0.42501  0.42922  1.0000
  H   H150      1.0  0.63889  0.44890  0.35611  1.0000
  H   H151      1.0  0.64662  0.44390  0.47057  1.0000
  C   C184      1.0  0.85351  0.26033  0.30212  1.0000
  C   C185      1.0  0.87491  0.28339  0.36773  1.0000
  C   C186      1.0  0.90705  0.28693  0.38580  1.0000
  C   C187      1.0  0.91794  0.26802  0.33414  1.0000
  H   H152      1.0  0.86543  0.29425  0.40987  1.0000
  C   C188      1.0  0.92818  0.30881  0.46020  1.0000
  H   H153      1.0  0.91688  0.32214  0.49267  1.0000
  H   H154      1.0  0.95274  0.32761  0.43408  1.0000
  H   H155      1.0  0.93191  0.29389  0.51101  1.0000
  C   C189      1.0  0.73735  0.08871  0.34231  1.0000
  C   C190      1.0  0.71936  0.09883  0.39945  1.0000
  C   C191      1.0  0.72398  0.13195  0.39514  1.0000
  C   C192      1.0  0.74789  0.15488  0.33237  1.0000
  H   H156      1.0  0.70628  0.08342  0.45188  1.0000
  C   C193      1.0  0.70861  0.14306  0.46521  1.0000
  H   H157      1.0  0.69449  0.12344  0.51473  1.0000
  H   H158      1.0  0.69110  0.14961  0.43439  1.0000
  H   H159      1.0  0.72815  0.16495  0.50074  1.0000
  C   C194      1.0  0.90177  0.16415  0.36279  1.0000
  C   C195      1.0  0.90280  0.13416  0.37754  1.0000
  C   C196      1.0  0.87239  0.10251  0.38746  1.0000
  C   C197      1.0  0.84079  0.10179  0.38332  1.0000
  H   H160      1.0  0.92569  0.13591  0.38788  1.0000
  C   C198      1.0  0.87506  0.07250  0.41164  1.0000
  H   H161      1.0  0.90081  0.07891  0.42817  1.0000
  H   H162      1.0  0.86699  0.05507  0.35528  1.0000
  H   H163      1.0  0.85941  0.05997  0.46995  1.0000
  C   C199      1.0  0.98496  0.74548  0.31833  1.0000
  C   C200      1.0  0.92883  0.69812  0.36274  1.0000
  C   C201      1.0  0.96024  0.71013  0.31665  1.0000
  C   C202      1.0  0.52099  0.75847  0.31818  1.0000
  C   C203      1.0  0.54565  0.79382  0.31658  1.0000
  C   C204      1.0  0.57700  0.80585  0.36291  1.0000
  N   N73       1.0  0.96418  0.68979  0.25694  1.0000
  N   N74       1.0  0.54179  0.81414  0.25671  1.0000
  H   H164      1.0  0.48166  0.69967  0.21139  1.0000
  H   H165      1.0  0.94598  0.66726  0.24381  1.0000
  H   H166      1.0  0.55973  0.83685  0.24406  1.0000
  H   H167      1.0  0.61651  0.81032  0.49955  1.0000
  H   H168      1.0  0.88948  0.69370  0.49975  1.0000
  C   C205      1.0  0.76289  0.74364  0.30513  1.0000
  C   C206      1.0  0.81777  0.74415  0.31044  1.0000
  C   C207      1.0  0.79865  0.76006  0.28724  1.0000
  C   C208      1.0  0.74302  0.76026  0.30509  1.0000
  C   C209      1.0  0.70726  0.74384  0.28725  1.0000
  C   C210      1.0  0.68816  0.75980  0.31021  1.0000
  N   N75       1.0  0.81401  0.78881  0.23687  1.0000
  N   N76       1.0  0.69188  0.71502  0.23714  1.0000
  H   H169      1.0  0.80073  0.79619  0.20321  1.0000
  H   H170      1.0  0.83747  0.79910  0.21875  1.0000
  H   H171      1.0  0.66844  0.70483  0.21885  1.0000
  H   H172      1.0  0.70517  0.70766  0.20344  1.0000
  H   H173      1.0  0.66568  0.79535  0.39646  1.0000
  H   H174      1.0  0.84030  0.70874  0.39709  1.0000
  C   C211      1.0  0.75964  0.51987  0.34201  1.0000
  C   C212      1.0  0.74935  0.56712  0.37149  1.0000
  C   C213      1.0  0.73982  0.53582  0.32808  1.0000
  C   C214      1.0  0.74628  0.98400  0.34215  1.0000
  C   C215      1.0  0.76607  0.96801  0.32816  1.0000
  C   C216      1.0  0.75650  0.93666  0.37136  1.0000
  N   N77       1.0  0.71295  0.52188  0.27111  1.0000
  N   N78       1.0  0.79297  0.98198  0.27130  1.0000
  H   H175      1.0  0.70882  0.00306  0.23268  1.0000
  H   H176      1.0  0.69926  0.53222  0.25977  1.0000
  H   H177      1.0  0.80656  0.97155  0.25972  1.0000
  H   H178      1.0  0.79706  0.50077  0.23277  1.0000
  H   H179      1.0  0.73418  0.89061  0.49992  1.0000
  H   H180      1.0  0.77157  0.61313  0.50014  1.0000
  N   N79       1.0  0.60987  0.75638  0.26982  1.0000
  N   N80       1.0  0.63960  0.76007  0.25523  1.0000
  N   N81       1.0  0.74339  0.86154  0.27640  1.0000
  N   N82       1.0  0.74788  0.89185  0.28109  1.0000
  N   N83       1.0  0.66264  0.87228  0.36028  1.0000
  N   N84       1.0  0.63516  0.84385  0.35113  1.0000
  N   N85       1.0  0.89602  0.74752  0.27024  1.0000
  N   N86       1.0  0.86630  0.74382  0.25541  1.0000
  N   N87       1.0  0.76262  0.64238  0.27714  1.0000
  N   N88       1.0  0.75800  0.61203  0.28188  1.0000
  N   N89       1.0  0.84320  0.63164  0.36073  1.0000
  N   N90       1.0  0.87067  0.66008  0.35153  1.0000
  C   C217      1.0  0.97097  0.76702  0.32970  1.0000
  C   C218      1.0  0.93903  0.75600  0.36793  1.0000
  C   C219      1.0  0.92196  0.72262  0.40114  1.0000
  H   H181      1.0  0.98503  0.79238  0.32086  1.0000
  N   N91       1.0  0.89857  0.71486  0.46730  1.0000
  C   C220      1.0  0.58392  0.78137  0.40115  1.0000
  C   C221      1.0  0.56700  0.74804  0.36763  1.0000
  C   C222      1.0  0.53504  0.73697  0.32924  1.0000
  N   N92       1.0  0.60733  0.78911  0.46721  1.0000
  H   H182      1.0  0.52095  0.71159  0.32084  1.0000
  H   H183      1.0  0.61044  0.77180  0.49561  1.0000
  H   H184      1.0  0.89577  0.73231  0.49606  1.0000
  C   C223      1.0  0.74709  0.70880  0.32819  1.0000
  C   C224      1.0  0.76450  0.69074  0.33401  1.0000
  C   C225      1.0  0.80031  0.70974  0.33867  1.0000
  H   H185      1.0  0.72179  0.69548  0.33893  1.0000
  N   N93       1.0  0.81697  0.69538  0.37938  1.0000
  C   C226      1.0  0.70564  0.79424  0.33818  1.0000
  C   C227      1.0  0.74146  0.81321  0.33351  1.0000
  C   C228      1.0  0.75884  0.79513  0.32787  1.0000
  N   N94       1.0  0.68902  0.80867  0.37873  1.0000
  H   H186      1.0  0.78414  0.80844  0.33861  1.0000
  H   H187      1.0  0.70126  0.83021  0.40919  1.0000
  H   H188      1.0  0.80475  0.67386  0.40998  1.0000
  C   C229      1.0  0.79393  0.54172  0.36652  1.0000
  C   C230      1.0  0.80635  0.57562  0.39117  1.0000
  C   C231      1.0  0.78123  0.58391  0.41519  1.0000
  H   H189      1.0  0.81011  0.53276  0.36882  1.0000
  N   N95       1.0  0.78876  0.60888  0.47646  1.0000
  C   C232      1.0  0.72461  0.91992  0.41504  1.0000
  C   C233      1.0  0.69952  0.92826  0.39109  1.0000
  C   C234      1.0  0.71198  0.96217  0.36654  1.0000
  N   N96       1.0  0.71703  0.89492  0.47624  1.0000
  H   H190      1.0  0.69579  0.97112  0.36868  1.0000
  H   H191      1.0  0.69639  0.88568  0.51140  1.0000
  H   H192      1.0  0.80939  0.61813  0.51166  1.0000
  C   C235      1.0  0.65241  0.74359  0.30208  1.0000
  C   C236      1.0  0.63094  0.72053  0.36763  1.0000
  C   C237      1.0  0.59882  0.71703  0.38567  1.0000
  C   C238      1.0  0.58798  0.73591  0.33372  1.0000
  H   H193      1.0  0.64047  0.70979  0.41000  1.0000
  C   C239      1.0  0.57769  0.69523  0.46019  1.0000
  H   H194      1.0  0.58897  0.68191  0.49277  1.0000
  H   H195      1.0  0.55311  0.67643  0.43415  1.0000
  H   H196      1.0  0.57400  0.71021  0.51087  1.0000
  C   C240      1.0  0.76842  0.91502  0.34184  1.0000
  C   C241      1.0  0.78637  0.90502  0.39944  1.0000
  C   C242      1.0  0.78186  0.87196  0.39497  1.0000
  C   C243      1.0  0.75816  0.84908  0.33170  1.0000
  H   H197      1.0  0.79949  0.92050  0.45175  1.0000
  C   C244      1.0  0.79717  0.86083  0.46515  1.0000
  H   H198      1.0  0.81121  0.88042  0.51479  1.0000
  H   H199      1.0  0.81474  0.85432  0.43444  1.0000
  H   H200      1.0  0.77760  0.83889  0.50049  1.0000
  C   C245      1.0  0.60408  0.83980  0.36272  1.0000
  C   C246      1.0  0.60307  0.86978  0.37772  1.0000
  C   C247      1.0  0.63350  0.90142  0.38768  1.0000
  C   C248      1.0  0.66508  0.90211  0.38315  1.0000
  H   H201      1.0  0.58020  0.86805  0.38849  1.0000
  C   C249      1.0  0.63089  0.93142  0.41235  1.0000
  H   H202      1.0  0.60516  0.92500  0.42922  1.0000
  H   H203      1.0  0.63889  0.94890  0.35611  1.0000
  H   H204      1.0  0.64662  0.94390  0.47057  1.0000
  C   C250      1.0  0.85351  0.76034  0.30212  1.0000
  C   C251      1.0  0.87491  0.78339  0.36773  1.0000
  C   C252      1.0  0.90705  0.78693  0.38580  1.0000
  C   C253      1.0  0.91794  0.76802  0.33414  1.0000
  H   H205      1.0  0.86543  0.79425  0.40987  1.0000
  C   C254      1.0  0.92818  0.80881  0.46020  1.0000
  H   H206      1.0  0.91688  0.82214  0.49267  1.0000
  H   H207      1.0  0.95274  0.82761  0.43408  1.0000
  H   H208      1.0  0.93191  0.79390  0.51101  1.0000
  C   C255      1.0  0.73735  0.58871  0.34231  1.0000
  C   C256      1.0  0.71936  0.59883  0.39945  1.0000
  C   C257      1.0  0.72398  0.63195  0.39514  1.0000
  C   C258      1.0  0.74789  0.65489  0.33237  1.0000
  H   H209      1.0  0.70628  0.58342  0.45188  1.0000
  C   C259      1.0  0.70861  0.64306  0.46521  1.0000
  H   H210      1.0  0.69449  0.62344  0.51473  1.0000
  H   H211      1.0  0.69110  0.64961  0.43439  1.0000
  H   H212      1.0  0.72815  0.66495  0.50074  1.0000
  C   C260      1.0  0.90177  0.66415  0.36279  1.0000
  C   C261      1.0  0.90280  0.63416  0.37754  1.0000
  C   C262      1.0  0.87239  0.60251  0.38746  1.0000
  C   C263      1.0  0.84079  0.60179  0.38332  1.0000
  H   H213      1.0  0.92569  0.63591  0.38788  1.0000
  C   C264      1.0  0.87506  0.57250  0.41164  1.0000
  H   H214      1.0  0.90081  0.57891  0.42817  1.0000
  H   H215      1.0  0.86699  0.55507  0.35528  1.0000
  H   H216      1.0  0.85941  0.55997  0.46995  1.0000
