data_image0
_chemical_formula_structural       C2HC2NH2C2HNH2C4H2C3NH2C3NH2C2HC2NH2C2HNH2C4H2C3NH2C3NH6C2HC2HC2NHC2NH2NH2NHC2NH2NH2C3HC4HC5H2CNHC4NH2NH2CNH2C4NH2NH2C2HC2HC2NHC2NH2NH2NHC2NH2NH2C3HC4HC5H2CNHC4NH2NH2CNH2C4NH2NH2C2H2NHNHCH2C3H2CNHCNHC2H2NHNHCH2C3H2CNHCNHC2HC2NH3C2HNH2C4H2C3NH3C3HNH2C2HC2NH3C2HNH2C4H2C3NH3C3HNH2C2HC2HC2HC2HC2HC2HC2NH2NH2C2NH2NH2C2NH2NH2C2NH2NH2C2NH2NH2C2NH2NH2C4H2C4H2C4H2C4H2C4H2C4H2C4NH2NH2C4NH2NH2C4NH2NH2C4NH2NH2C4NH2NH2C4NH2NH2C2HC2HC2HC2HC2HC2HC2NH2NH2C2NH2NH2C2NH2NH2C2NH2NH2C2NH2NH2C2NH2NH2C4H2C4H2C4H2C4H2C4H2C4H2C4NH2NH2C4NH2NH2C4NH2NH2C4NH2NH2C4NH2NH2C4NH2NH2
_chemical_formula_sum              "C288 H264 N96"
_cell_length_a       46.8899
_cell_length_b       46.8899
_cell_length_c       14.777
_cell_angle_alpha    90
_cell_angle_beta     90
_cell_angle_gamma    120

_space_group_name_H-M_alt    "P 1"
_space_group_IT_number       1

loop_
  _space_group_symop_operation_xyz
  'x, y, z'

loop_
  _atom_site_type_symbol
  _atom_site_label
  _atom_site_symmetry_multiplicity
  _atom_site_fract_x
  _atom_site_fract_y
  _atom_site_fract_z
  _atom_site_occupancy
  C   C1        1.0  0.04853  0.30185  0.35020  1.0000
  C   C2        1.0  0.08351  0.31982  0.35037  1.0000
  H   H1        1.0  0.03752  0.31582  0.35008  1.0000
  C   C3        1.0  0.11748  0.25051  0.26647  1.0000
  C   C4        1.0  0.14807  0.25052  0.26641  1.0000
  N   N1        1.0  0.10157  0.24971  0.18775  1.0000
  H   H2        1.0  0.07991  0.24766  0.18791  1.0000
  H   H3        1.0  0.10959  0.24883  0.12831  1.0000
  C   C5        1.0  0.14801  0.40147  0.26651  1.0000
  C   C6        1.0  0.11754  0.37077  0.26634  1.0000
  H   H4        1.0  0.15332  0.41022  0.12873  1.0000
  N   N2        1.0  0.10200  0.35544  0.18745  1.0000
  H   H5        1.0  0.08043  0.33572  0.18726  1.0000
  H   H6        1.0  0.11066  0.36379  0.12802  1.0000
  C   C7        1.0  0.02925  0.26652  0.35026  1.0000
  C   C8        1.0  0.10044  0.30213  0.35039  1.0000
  C   C9        1.0  0.08353  0.26751  0.35032  1.0000
  C   C10       1.0  0.04855  0.25049  0.35032  1.0000
  H   H7        1.0  0.12574  0.31479  0.35041  1.0000
  H   H8        1.0  0.03755  0.22551  0.35034  1.0000
  C   C11       1.0  0.14807  0.25047  0.43425  1.0000
  C   C12       1.0  0.11753  0.25056  0.43431  1.0000
  C   C13       1.0  0.10304  0.25193  0.35043  1.0000
  N   N3        1.0  0.10175  0.24996  0.51309  1.0000
  H   H9        1.0  0.10991  0.24933  0.57252  1.0000
  H   H10       1.0  0.08013  0.24798  0.51303  1.0000
  C   C14       1.0  0.10299  0.35492  0.35017  1.0000
  C   C15       1.0  0.11740  0.37077  0.43413  1.0000
  C   C16       1.0  0.14809  0.40125  0.43421  1.0000
  N   N4        1.0  0.10140  0.35573  0.51281  1.0000
  H   H11       1.0  0.07970  0.33619  0.51257  1.0000
  H   H12       1.0  0.10931  0.36474  0.57223  1.0000
  C   C17       1.0  0.04853  0.80185  0.35020  1.0000
  C   C18       1.0  0.08351  0.81982  0.35037  1.0000
  H   H13       1.0  0.03752  0.81581  0.35008  1.0000
  C   C19       1.0  0.11748  0.75051  0.26647  1.0000
  C   C20       1.0  0.14807  0.75052  0.26641  1.0000
  N   N5        1.0  0.10157  0.74971  0.18775  1.0000
  H   H14       1.0  0.07992  0.74766  0.18791  1.0000
  H   H15       1.0  0.10959  0.74883  0.12831  1.0000
  C   C21       1.0  0.14801  0.90147  0.26651  1.0000
  C   C22       1.0  0.11754  0.87077  0.26634  1.0000
  H   H16       1.0  0.15332  0.91022  0.12873  1.0000
  N   N6        1.0  0.10201  0.85544  0.18745  1.0000
  H   H17       1.0  0.08043  0.83572  0.18726  1.0000
  H   H18       1.0  0.11066  0.86379  0.12802  1.0000
  C   C23       1.0  0.02925  0.76652  0.35026  1.0000
  C   C24       1.0  0.10044  0.80213  0.35039  1.0000
  C   C25       1.0  0.08353  0.76751  0.35032  1.0000
  C   C26       1.0  0.04855  0.75049  0.35032  1.0000
  H   H19       1.0  0.12574  0.81479  0.35041  1.0000
  H   H20       1.0  0.03755  0.72551  0.35034  1.0000
  C   C27       1.0  0.14807  0.75047  0.43425  1.0000
  C   C28       1.0  0.11753  0.75056  0.43431  1.0000
  C   C29       1.0  0.10304  0.75193  0.35043  1.0000
  N   N7        1.0  0.10176  0.74996  0.51309  1.0000
  H   H21       1.0  0.10991  0.74933  0.57252  1.0000
  H   H22       1.0  0.08012  0.74798  0.51303  1.0000
  C   C30       1.0  0.10299  0.85492  0.35017  1.0000
  C   C31       1.0  0.11741  0.87077  0.43413  1.0000
  C   C32       1.0  0.14809  0.90125  0.43421  1.0000
  N   N8        1.0  0.10140  0.85573  0.51281  1.0000
  H   H23       1.0  0.07970  0.83619  0.51257  1.0000
  H   H24       1.0  0.10931  0.86474  0.57223  1.0000
  H   H25       1.0  0.15432  0.24901  0.12822  1.0000
  H   H26       1.0  0.15421  0.24863  0.57237  1.0000
  H   H27       1.0  0.15432  0.74901  0.12822  1.0000
  H   H28       1.0  0.15421  0.74863  0.57237  1.0000
  C   C33       1.0  0.21698  0.25044  0.35024  1.0000
  C   C34       1.0  0.19901  0.26745  0.35024  1.0000
  H   H29       1.0  0.20300  0.22546  0.35022  1.0000
  C   C35       1.0  0.27130  0.07977  0.35023  1.0000
  C   C36       1.0  0.25427  0.04480  0.35027  1.0000
  H   H30       1.0  0.22929  0.03379  0.35030  1.0000
  C   C37       1.0  0.26841  0.47033  0.35022  1.0000
  C   C38       1.0  0.25139  0.43536  0.35017  1.0000
  N   N9        1.0  0.16320  0.24981  0.18764  1.0000
  H   H31       1.0  0.18277  0.24770  0.18776  1.0000
  C   C39       1.0  0.26843  0.37079  0.26649  1.0000
  C   C40       1.0  0.26843  0.40138  0.26645  1.0000
  N   N10       1.0  0.26927  0.35571  0.18777  1.0000
  H   H32       1.0  0.27129  0.33609  0.18793  1.0000
  H   H33       1.0  0.27026  0.36467  0.12834  1.0000
  N   N11       1.0  0.26917  0.41723  0.18768  1.0000
  H   H34       1.0  0.27125  0.43889  0.18778  1.0000
  H   H35       1.0  0.27000  0.40916  0.12827  1.0000
  N   N12       1.0  0.16287  0.41766  0.18789  1.0000
  H   H36       1.0  0.18236  0.43939  0.18832  1.0000
  C   C41       1.0  0.25428  0.14433  0.26649  1.0000
  C   C42       1.0  0.25429  0.11375  0.26649  1.0000
  N   N13       1.0  0.25358  0.15947  0.18774  1.0000
  H   H37       1.0  0.25152  0.17907  0.18783  1.0000
  H   H38       1.0  0.25297  0.15070  0.12828  1.0000
  N   N14       1.0  0.25349  0.09786  0.18774  1.0000
  H   H39       1.0  0.25138  0.07617  0.18792  1.0000
  H   H40       1.0  0.25239  0.10578  0.12835  1.0000
  C   C43       1.0  0.27026  0.24855  0.35026  1.0000
  C   C44       1.0  0.25422  0.21322  0.35034  1.0000
  C   C45       1.0  0.27124  0.19526  0.35034  1.0000
  H   H41       1.0  0.22924  0.19924  0.35039  1.0000
  C   C46       1.0  0.25231  0.26648  0.35025  1.0000
  C   C47       1.0  0.21672  0.30207  0.35027  1.0000
  C   C48       1.0  0.25133  0.31976  0.35025  1.0000
  C   C49       1.0  0.26835  0.30181  0.35028  1.0000
  H   H42       1.0  0.20407  0.31472  0.35030  1.0000
  C   C50       1.0  0.27031  0.02550  0.35027  1.0000
  C   C51       1.0  0.25236  0.48962  0.35024  1.0000
  C   C52       1.0  0.21678  0.41843  0.35012  1.0000
  C   C53       1.0  0.19907  0.43535  0.35010  1.0000
  C   C54       1.0  0.21703  0.47032  0.35025  1.0000
  H   H43       1.0  0.20413  0.39313  0.35014  1.0000
  H   H44       1.0  0.20305  0.48133  0.35037  1.0000
  C   C55       1.0  0.16392  0.25187  0.35033  1.0000
  N   N15       1.0  0.16316  0.24962  0.51293  1.0000
  H   H45       1.0  0.18275  0.24754  0.51273  1.0000
  C   C56       1.0  0.26696  0.41585  0.35030  1.0000
  C   C57       1.0  0.26843  0.40139  0.43415  1.0000
  C   C58       1.0  0.26840  0.37079  0.43417  1.0000
  C   C59       1.0  0.26690  0.35484  0.35036  1.0000
  N   N16       1.0  0.26913  0.35567  0.51292  1.0000
  H   H46       1.0  0.27017  0.36467  0.57232  1.0000
  H   H47       1.0  0.27118  0.33606  0.51276  1.0000
  N   N17       1.0  0.26917  0.41726  0.51286  1.0000
  H   H48       1.0  0.27118  0.43890  0.51273  1.0000
  H   H49       1.0  0.26995  0.40919  0.57231  1.0000
  C   C60       1.0  0.16400  0.41580  0.35041  1.0000
  N   N18       1.0  0.16332  0.41695  0.51303  1.0000
  H   H50       1.0  0.15454  0.40876  0.57245  1.0000
  H   H51       1.0  0.18299  0.43857  0.51300  1.0000
  C   C61       1.0  0.25573  0.09929  0.35041  1.0000
  C   C62       1.0  0.25426  0.11373  0.43427  1.0000
  C   C63       1.0  0.25426  0.14431  0.43431  1.0000
  C   C64       1.0  0.25564  0.16017  0.35042  1.0000
  N   N19       1.0  0.25358  0.15946  0.51306  1.0000
  H   H52       1.0  0.25289  0.15065  0.57251  1.0000
  H   H53       1.0  0.25154  0.17908  0.51296  1.0000
  N   N20       1.0  0.25347  0.09783  0.51298  1.0000
  H   H54       1.0  0.25148  0.07620  0.51281  1.0000
  H   H55       1.0  0.25248  0.10579  0.57240  1.0000
  C   C65       1.0  0.21698  0.75044  0.35024  1.0000
  C   C66       1.0  0.19901  0.76745  0.35024  1.0000
  H   H56       1.0  0.20301  0.72546  0.35022  1.0000
  C   C67       1.0  0.27130  0.57977  0.35023  1.0000
  C   C68       1.0  0.25427  0.54480  0.35027  1.0000
  H   H57       1.0  0.22929  0.53379  0.35030  1.0000
  C   C69       1.0  0.26841  0.97034  0.35022  1.0000
  C   C70       1.0  0.25139  0.93536  0.35017  1.0000
  N   N21       1.0  0.16320  0.74981  0.18764  1.0000
  H   H58       1.0  0.18277  0.74770  0.18776  1.0000
  C   C71       1.0  0.26843  0.87079  0.26649  1.0000
  C   C72       1.0  0.26843  0.90138  0.26645  1.0000
  N   N22       1.0  0.26927  0.85571  0.18777  1.0000
  H   H59       1.0  0.27130  0.83609  0.18793  1.0000
  H   H60       1.0  0.27026  0.86467  0.12834  1.0000
  N   N23       1.0  0.26917  0.91723  0.18768  1.0000
  H   H61       1.0  0.27125  0.93890  0.18778  1.0000
  H   H62       1.0  0.27000  0.90916  0.12827  1.0000
  N   N24       1.0  0.16287  0.91766  0.18789  1.0000
  H   H63       1.0  0.18237  0.93939  0.18832  1.0000
  C   C73       1.0  0.25428  0.64433  0.26649  1.0000
  C   C74       1.0  0.25430  0.61375  0.26649  1.0000
  N   N25       1.0  0.25358  0.65947  0.18774  1.0000
  H   H64       1.0  0.25152  0.67907  0.18783  1.0000
  H   H65       1.0  0.25297  0.65070  0.12828  1.0000
  N   N26       1.0  0.25349  0.59786  0.18774  1.0000
  H   H66       1.0  0.25138  0.57617  0.18792  1.0000
  H   H67       1.0  0.25239  0.60578  0.12835  1.0000
  C   C75       1.0  0.27026  0.74855  0.35026  1.0000
  C   C76       1.0  0.25422  0.71322  0.35034  1.0000
  C   C77       1.0  0.27124  0.69526  0.35034  1.0000
  H   H68       1.0  0.22924  0.69924  0.35039  1.0000
  C   C78       1.0  0.25231  0.76648  0.35025  1.0000
  C   C79       1.0  0.21672  0.80207  0.35027  1.0000
  C   C80       1.0  0.25133  0.81976  0.35025  1.0000
  C   C81       1.0  0.26835  0.80181  0.35028  1.0000
  H   H69       1.0  0.20407  0.81472  0.35030  1.0000
  C   C82       1.0  0.27031  0.52550  0.35027  1.0000
  C   C83       1.0  0.25236  0.98962  0.35024  1.0000
  C   C84       1.0  0.21678  0.91843  0.35012  1.0000
  C   C85       1.0  0.19908  0.93535  0.35010  1.0000
  C   C86       1.0  0.21703  0.97032  0.35025  1.0000
  H   H70       1.0  0.20413  0.89313  0.35014  1.0000
  H   H71       1.0  0.20305  0.98133  0.35037  1.0000
  C   C87       1.0  0.16392  0.75187  0.35033  1.0000
  N   N27       1.0  0.16316  0.74962  0.51293  1.0000
  H   H72       1.0  0.18275  0.74754  0.51273  1.0000
  C   C88       1.0  0.26696  0.91585  0.35030  1.0000
  C   C89       1.0  0.26843  0.90139  0.43415  1.0000
  C   C90       1.0  0.26840  0.87079  0.43417  1.0000
  C   C91       1.0  0.26690  0.85484  0.35036  1.0000
  N   N28       1.0  0.26913  0.85567  0.51292  1.0000
  H   H73       1.0  0.27017  0.86467  0.57232  1.0000
  H   H74       1.0  0.27118  0.83606  0.51276  1.0000
  N   N29       1.0  0.26917  0.91726  0.51286  1.0000
  H   H75       1.0  0.27118  0.93890  0.51273  1.0000
  H   H76       1.0  0.26995  0.90919  0.57231  1.0000
  C   C92       1.0  0.16400  0.91580  0.35041  1.0000
  N   N30       1.0  0.16332  0.91695  0.51303  1.0000
  H   H77       1.0  0.15454  0.90876  0.57245  1.0000
  H   H78       1.0  0.18299  0.93857  0.51300  1.0000
  C   C93       1.0  0.25573  0.59929  0.35041  1.0000
  C   C94       1.0  0.25426  0.61373  0.43427  1.0000
  C   C95       1.0  0.25426  0.64431  0.43431  1.0000
  C   C96       1.0  0.25564  0.66017  0.35042  1.0000
  N   N31       1.0  0.25358  0.65946  0.51306  1.0000
  H   H79       1.0  0.25289  0.65065  0.57251  1.0000
  H   H80       1.0  0.25154  0.67908  0.51296  1.0000
  N   N32       1.0  0.25347  0.59783  0.51298  1.0000
  H   H81       1.0  0.25148  0.57620  0.51281  1.0000
  H   H82       1.0  0.25248  0.60579  0.57240  1.0000
  C   C97       1.0  0.32356  0.24758  0.35031  1.0000
  C   C98       1.0  0.30559  0.26459  0.35019  1.0000
  H   H83       1.0  0.31956  0.28957  0.35008  1.0000
  H   H84       1.0  0.29339  0.48134  0.35027  1.0000
  N   N33       1.0  0.35935  0.26520  0.18755  1.0000
  H   H85       1.0  0.33968  0.26714  0.18759  1.0000
  N   N34       1.0  0.35942  0.09787  0.18769  1.0000
  H   H86       1.0  0.33981  0.07621  0.18778  1.0000
  C   C99       1.0  0.30586  0.21296  0.35037  1.0000
  H   H87       1.0  0.31851  0.20031  0.35039  1.0000
  H   H88       1.0  0.29333  0.31578  0.35034  1.0000
  C   C100      1.0  0.30564  0.04478  0.35028  1.0000
  C   C101      1.0  0.32361  0.07976  0.35028  1.0000
  C   C102      1.0  0.30592  0.09669  0.35028  1.0000
  H   H89       1.0  0.31961  0.03377  0.35029  1.0000
  H   H90       1.0  0.31857  0.12199  0.35032  1.0000
  C   C103      1.0  0.35866  0.26318  0.35020  1.0000
  N   N35       1.0  0.35941  0.26538  0.51286  1.0000
  H   H91       1.0  0.33989  0.26757  0.51263  1.0000
  C   C104      1.0  0.35870  0.09925  0.35036  1.0000
  N   N36       1.0  0.35945  0.09779  0.51298  1.0000
  H   H92       1.0  0.33988  0.07611  0.51275  1.0000
  C   C105      1.0  0.32356  0.74758  0.35031  1.0000
  C   C106      1.0  0.30559  0.76459  0.35019  1.0000
  H   H93       1.0  0.31956  0.78957  0.35008  1.0000
  H   H94       1.0  0.29339  0.98134  0.35027  1.0000
  N   N37       1.0  0.35935  0.76520  0.18755  1.0000
  H   H95       1.0  0.33968  0.76714  0.18759  1.0000
  N   N38       1.0  0.35942  0.59787  0.18769  1.0000
  H   H96       1.0  0.33981  0.57621  0.18778  1.0000
  C   C107      1.0  0.30586  0.71296  0.35037  1.0000
  H   H97       1.0  0.31851  0.70031  0.35039  1.0000
  H   H98       1.0  0.29333  0.81578  0.35034  1.0000
  C   C108      1.0  0.30564  0.54478  0.35028  1.0000
  C   C109      1.0  0.32361  0.57976  0.35028  1.0000
  C   C110      1.0  0.30592  0.59669  0.35028  1.0000
  H   H99       1.0  0.31961  0.53378  0.35029  1.0000
  H   H100      1.0  0.31857  0.62199  0.35032  1.0000
  C   C111      1.0  0.35866  0.76318  0.35020  1.0000
  N   N39       1.0  0.35941  0.76538  0.51286  1.0000
  H   H101      1.0  0.33989  0.76757  0.51263  1.0000
  C   C112      1.0  0.35870  0.59925  0.35036  1.0000
  N   N40       1.0  0.35945  0.59779  0.51298  1.0000
  H   H102      1.0  0.33988  0.57610  0.51275  1.0000
  C   C113      1.0  0.43911  0.19528  0.35020  1.0000
  C   C114      1.0  0.47408  0.21324  0.35029  1.0000
  H   H103      1.0  0.48509  0.19927  0.35038  1.0000
  C   C115      1.0  0.40517  0.26471  0.26636  1.0000
  C   C116      1.0  0.37453  0.26461  0.26632  1.0000
  N   N41       1.0  0.42118  0.26572  0.18768  1.0000
  H   H104      1.0  0.44284  0.26778  0.18791  1.0000
  H   H105      1.0  0.41336  0.26702  0.12831  1.0000
  H   H106      1.0  0.36805  0.26567  0.12809  1.0000
  C   C117      1.0  0.37455  0.11372  0.26644  1.0000
  C   C118      1.0  0.40515  0.14430  0.26648  1.0000
  H   H107      1.0  0.36824  0.10599  0.12824  1.0000
  N   N42       1.0  0.42104  0.15939  0.18774  1.0000
  H   H108      1.0  0.44273  0.17896  0.18791  1.0000
  H   H109      1.0  0.41307  0.15041  0.12834  1.0000
  C   C119      1.0  0.49337  0.24857  0.35022  1.0000
  C   C120      1.0  0.47407  0.26461  0.35017  1.0000
  C   C121      1.0  0.43909  0.24758  0.35018  1.0000
  C   C122      1.0  0.42218  0.21296  0.35018  1.0000
  H   H110      1.0  0.48507  0.28958  0.35018  1.0000
  H   H111      1.0  0.39688  0.20031  0.35020  1.0000
  C   C123      1.0  0.37449  0.26453  0.43413  1.0000
  C   C124      1.0  0.40502  0.26443  0.43413  1.0000
  C   C125      1.0  0.41956  0.26314  0.35020  1.0000
  N   N43       1.0  0.42077  0.26495  0.51292  1.0000
  H   H112      1.0  0.41258  0.26553  0.57236  1.0000
  H   H113      1.0  0.44243  0.26702  0.51286  1.0000
  H   H114      1.0  0.36843  0.26649  0.57226  1.0000
  C   C126      1.0  0.41960  0.16019  0.35041  1.0000
  C   C127      1.0  0.40512  0.14429  0.43426  1.0000
  C   C128      1.0  0.37456  0.11369  0.43426  1.0000
  H   H115      1.0  0.36844  0.10574  0.57238  1.0000
  N   N44       1.0  0.42095  0.15945  0.51300  1.0000
  H   H116      1.0  0.44257  0.17910  0.51290  1.0000
  H   H117      1.0  0.41284  0.15063  0.57246  1.0000
  C   C129      1.0  0.43911  0.69527  0.35020  1.0000
  C   C130      1.0  0.47408  0.71324  0.35029  1.0000
  H   H118      1.0  0.48510  0.69927  0.35038  1.0000
  C   C131      1.0  0.40517  0.76471  0.26636  1.0000
  C   C132      1.0  0.37453  0.76461  0.26632  1.0000
  N   N45       1.0  0.42118  0.76572  0.18768  1.0000
  H   H119      1.0  0.44284  0.76778  0.18791  1.0000
  H   H120      1.0  0.41336  0.76702  0.12831  1.0000
  H   H121      1.0  0.36806  0.76567  0.12809  1.0000
  C   C133      1.0  0.37455  0.61372  0.26644  1.0000
  C   C134      1.0  0.40515  0.64430  0.26648  1.0000
  H   H122      1.0  0.36824  0.60599  0.12824  1.0000
  N   N46       1.0  0.42104  0.65939  0.18774  1.0000
  H   H123      1.0  0.44273  0.67896  0.18791  1.0000
  H   H124      1.0  0.41307  0.65041  0.12834  1.0000
  C   C135      1.0  0.49337  0.74857  0.35022  1.0000
  C   C136      1.0  0.47407  0.76461  0.35017  1.0000
  C   C137      1.0  0.43909  0.74758  0.35018  1.0000
  C   C138      1.0  0.42218  0.71296  0.35018  1.0000
  H   H125      1.0  0.48507  0.78958  0.35018  1.0000
  H   H126      1.0  0.39688  0.70031  0.35020  1.0000
  C   C139      1.0  0.37449  0.76453  0.43413  1.0000
  C   C140      1.0  0.40503  0.76443  0.43413  1.0000
  C   C141      1.0  0.41956  0.76314  0.35020  1.0000
  N   N47       1.0  0.42077  0.76495  0.51292  1.0000
  H   H127      1.0  0.41258  0.76553  0.57236  1.0000
  H   H128      1.0  0.44243  0.76702  0.51286  1.0000
  H   H129      1.0  0.36843  0.76649  0.57226  1.0000
  C   C142      1.0  0.41960  0.66019  0.35041  1.0000
  C   C143      1.0  0.40512  0.64429  0.43426  1.0000
  C   C144      1.0  0.37456  0.61369  0.43426  1.0000
  H   H130      1.0  0.36844  0.60574  0.57238  1.0000
  N   N48       1.0  0.42095  0.65945  0.51300  1.0000
  H   H131      1.0  0.44257  0.67910  0.51290  1.0000
  H   H132      1.0  0.41284  0.65063  0.57246  1.0000
  C   C145      1.0  0.93911  0.19528  0.35020  1.0000
  C   C146      1.0  0.97408  0.21324  0.35029  1.0000
  H   H133      1.0  0.98510  0.19927  0.35038  1.0000
  C   C147      1.0  0.54853  0.30185  0.35020  1.0000
  C   C148      1.0  0.58351  0.31982  0.35037  1.0000
  H   H134      1.0  0.53752  0.31582  0.35008  1.0000
  C   C149      1.0  0.82356  0.24758  0.35031  1.0000
  C   C150      1.0  0.80559  0.26459  0.35019  1.0000
  H   H135      1.0  0.81956  0.28957  0.35008  1.0000
  C   C151      1.0  0.71698  0.25044  0.35024  1.0000
  C   C152      1.0  0.69902  0.26745  0.35024  1.0000
  H   H136      1.0  0.70301  0.22546  0.35022  1.0000
  C   C153      1.0  0.77130  0.07977  0.35023  1.0000
  C   C154      1.0  0.75427  0.04480  0.35027  1.0000
  H   H137      1.0  0.72929  0.03379  0.35030  1.0000
  C   C155      1.0  0.76841  0.47033  0.35022  1.0000
  C   C156      1.0  0.75139  0.43536  0.35017  1.0000
  H   H138      1.0  0.79339  0.48134  0.35027  1.0000
  C   C157      1.0  0.61748  0.25051  0.26647  1.0000
  C   C158      1.0  0.64807  0.25052  0.26641  1.0000
  N   N49       1.0  0.60157  0.24971  0.18775  1.0000
  H   H139      1.0  0.57991  0.24766  0.18791  1.0000
  H   H140      1.0  0.60959  0.24883  0.12831  1.0000
  N   N50       1.0  0.66320  0.24981  0.18764  1.0000
  H   H141      1.0  0.68277  0.24770  0.18776  1.0000
  H   H142      1.0  0.65432  0.24901  0.12822  1.0000
  C   C159      1.0  0.76843  0.37079  0.26649  1.0000
  C   C160      1.0  0.76843  0.40138  0.26645  1.0000
  N   N51       1.0  0.76927  0.35571  0.18777  1.0000
  H   H143      1.0  0.77129  0.33609  0.18793  1.0000
  H   H144      1.0  0.77026  0.36467  0.12834  1.0000
  N   N52       1.0  0.76917  0.41723  0.18768  1.0000
  H   H145      1.0  0.77125  0.43889  0.18778  1.0000
  H   H146      1.0  0.77000  0.40916  0.12827  1.0000
  C   C161      1.0  0.64801  0.40147  0.26651  1.0000
  C   C162      1.0  0.61755  0.37077  0.26634  1.0000
  N   N53       1.0  0.66287  0.41766  0.18789  1.0000
  H   H147      1.0  0.68236  0.43939  0.18832  1.0000
  H   H148      1.0  0.65332  0.41022  0.12873  1.0000
  N   N54       1.0  0.60200  0.35544  0.18745  1.0000
  H   H149      1.0  0.58043  0.33572  0.18726  1.0000
  H   H150      1.0  0.61065  0.36379  0.12802  1.0000
  C   C163      1.0  0.90517  0.26471  0.26636  1.0000
  C   C164      1.0  0.87453  0.26461  0.26632  1.0000
  N   N55       1.0  0.92118  0.26572  0.18768  1.0000
  H   H151      1.0  0.94284  0.26778  0.18791  1.0000
  H   H152      1.0  0.91336  0.26702  0.12831  1.0000
  N   N56       1.0  0.85935  0.26520  0.18755  1.0000
  H   H153      1.0  0.83968  0.26714  0.18759  1.0000
  H   H154      1.0  0.86806  0.26567  0.12809  1.0000
  C   C165      1.0  0.75428  0.14433  0.26649  1.0000
  C   C166      1.0  0.75429  0.11375  0.26649  1.0000
  N   N57       1.0  0.75358  0.15947  0.18774  1.0000
  H   H155      1.0  0.75152  0.17907  0.18783  1.0000
  H   H156      1.0  0.75297  0.15070  0.12828  1.0000
  N   N58       1.0  0.75349  0.09786  0.18774  1.0000
  H   H157      1.0  0.75137  0.07617  0.18792  1.0000
  H   H158      1.0  0.75239  0.10578  0.12835  1.0000
  C   C167      1.0  0.87455  0.11372  0.26644  1.0000
  C   C168      1.0  0.90514  0.14430  0.26648  1.0000
  N   N59       1.0  0.85942  0.09787  0.18769  1.0000
  H   H159      1.0  0.83981  0.07621  0.18778  1.0000
  H   H160      1.0  0.86824  0.10599  0.12824  1.0000
  N   N60       1.0  0.92104  0.15939  0.18774  1.0000
  H   H161      1.0  0.94273  0.17896  0.18791  1.0000
  H   H162      1.0  0.91307  0.15041  0.12834  1.0000
  C   C169      1.0  0.99337  0.24857  0.35022  1.0000
  C   C170      1.0  0.97407  0.26461  0.35017  1.0000
  C   C171      1.0  0.93909  0.24758  0.35018  1.0000
  C   C172      1.0  0.92218  0.21296  0.35018  1.0000
  H   H163      1.0  0.98507  0.28958  0.35018  1.0000
  H   H164      1.0  0.89688  0.20031  0.35020  1.0000
  C   C173      1.0  0.52925  0.26652  0.35026  1.0000
  C   C174      1.0  0.60044  0.30213  0.35039  1.0000
  C   C175      1.0  0.58353  0.26751  0.35032  1.0000
  C   C176      1.0  0.54855  0.25049  0.35032  1.0000
  H   H165      1.0  0.62574  0.31479  0.35041  1.0000
  H   H166      1.0  0.53755  0.22551  0.35034  1.0000
  C   C177      1.0  0.77026  0.24855  0.35026  1.0000
  C   C178      1.0  0.75422  0.21322  0.35034  1.0000
  C   C179      1.0  0.77124  0.19526  0.35034  1.0000
  C   C180      1.0  0.80586  0.21296  0.35037  1.0000
  H   H167      1.0  0.72924  0.19924  0.35039  1.0000
  H   H168      1.0  0.81851  0.20031  0.35039  1.0000
  C   C181      1.0  0.75231  0.26648  0.35025  1.0000
  C   C182      1.0  0.71672  0.30207  0.35027  1.0000
  C   C183      1.0  0.75134  0.31976  0.35025  1.0000
  C   C184      1.0  0.76835  0.30181  0.35028  1.0000
  H   H169      1.0  0.70407  0.31472  0.35030  1.0000
  H   H170      1.0  0.79333  0.31578  0.35034  1.0000
  C   C185      1.0  0.77030  0.02550  0.35027  1.0000
  C   C186      1.0  0.80564  0.04478  0.35028  1.0000
  C   C187      1.0  0.82361  0.07976  0.35028  1.0000
  C   C188      1.0  0.80592  0.09669  0.35028  1.0000
  H   H171      1.0  0.81961  0.03377  0.35029  1.0000
  H   H172      1.0  0.81858  0.12199  0.35032  1.0000
  C   C189      1.0  0.75236  0.48962  0.35024  1.0000
  C   C190      1.0  0.71678  0.41843  0.35012  1.0000
  C   C191      1.0  0.69907  0.43535  0.35010  1.0000
  C   C192      1.0  0.71703  0.47032  0.35025  1.0000
  H   H173      1.0  0.70413  0.39313  0.35014  1.0000
  H   H174      1.0  0.70305  0.48133  0.35037  1.0000
  C   C193      1.0  0.66392  0.25187  0.35033  1.0000
  C   C194      1.0  0.64807  0.25047  0.43425  1.0000
  C   C195      1.0  0.61753  0.25056  0.43431  1.0000
  C   C196      1.0  0.60304  0.25193  0.35043  1.0000
  N   N61       1.0  0.60175  0.24996  0.51309  1.0000
  H   H175      1.0  0.60991  0.24933  0.57252  1.0000
  H   H176      1.0  0.58012  0.24798  0.51303  1.0000
  N   N62       1.0  0.66316  0.24962  0.51293  1.0000
  H   H177      1.0  0.68275  0.24754  0.51273  1.0000
  H   H178      1.0  0.65421  0.24863  0.57237  1.0000
  C   C197      1.0  0.76696  0.41585  0.35030  1.0000
  C   C198      1.0  0.76843  0.40139  0.43415  1.0000
  C   C199      1.0  0.76840  0.37079  0.43417  1.0000
  C   C200      1.0  0.76690  0.35484  0.35036  1.0000
  N   N63       1.0  0.76913  0.35567  0.51292  1.0000
  H   H179      1.0  0.77017  0.36467  0.57232  1.0000
  H   H180      1.0  0.77118  0.33606  0.51276  1.0000
  N   N64       1.0  0.76917  0.41726  0.51286  1.0000
  H   H181      1.0  0.77118  0.43890  0.51273  1.0000
  H   H182      1.0  0.76995  0.40919  0.57231  1.0000
  C   C201      1.0  0.60299  0.35492  0.35017  1.0000
  C   C202      1.0  0.61740  0.37077  0.43413  1.0000
  C   C203      1.0  0.64809  0.40125  0.43421  1.0000
  C   C204      1.0  0.66400  0.41580  0.35041  1.0000
  N   N65       1.0  0.66333  0.41695  0.51303  1.0000
  H   H183      1.0  0.65454  0.40876  0.57245  1.0000
  H   H184      1.0  0.68299  0.43857  0.51300  1.0000
  N   N66       1.0  0.60140  0.35573  0.51281  1.0000
  H   H185      1.0  0.57970  0.33619  0.51257  1.0000
  H   H186      1.0  0.60931  0.36474  0.57223  1.0000
  C   C205      1.0  0.85866  0.26318  0.35020  1.0000
  C   C206      1.0  0.87449  0.26453  0.43413  1.0000
  C   C207      1.0  0.90502  0.26443  0.43413  1.0000
  C   C208      1.0  0.91956  0.26314  0.35020  1.0000
  N   N67       1.0  0.92077  0.26495  0.51292  1.0000
  H   H187      1.0  0.91258  0.26553  0.57236  1.0000
  H   H188      1.0  0.94243  0.26702  0.51286  1.0000
  N   N68       1.0  0.85941  0.26538  0.51286  1.0000
  H   H189      1.0  0.83989  0.26757  0.51263  1.0000
  H   H190      1.0  0.86843  0.26649  0.57226  1.0000
  C   C209      1.0  0.75573  0.09929  0.35041  1.0000
  C   C210      1.0  0.75426  0.11373  0.43427  1.0000
  C   C211      1.0  0.75426  0.14431  0.43431  1.0000
  C   C212      1.0  0.75564  0.16017  0.35042  1.0000
  N   N69       1.0  0.75358  0.15946  0.51306  1.0000
  H   H191      1.0  0.75289  0.15065  0.57251  1.0000
  H   H192      1.0  0.75154  0.17908  0.51296  1.0000
  N   N70       1.0  0.75347  0.09783  0.51298  1.0000
  H   H193      1.0  0.75148  0.07620  0.51281  1.0000
  H   H194      1.0  0.75248  0.10579  0.57240  1.0000
  C   C213      1.0  0.91960  0.16019  0.35041  1.0000
  C   C214      1.0  0.90512  0.14429  0.43426  1.0000
  C   C215      1.0  0.87456  0.11369  0.43426  1.0000
  C   C216      1.0  0.85870  0.09925  0.35036  1.0000
  N   N71       1.0  0.85945  0.09779  0.51298  1.0000
  H   H195      1.0  0.86844  0.10574  0.57238  1.0000
  H   H196      1.0  0.83988  0.07611  0.51275  1.0000
  N   N72       1.0  0.92095  0.15945  0.51300  1.0000
  H   H197      1.0  0.94257  0.17910  0.51290  1.0000
  H   H198      1.0  0.91283  0.15063  0.57246  1.0000
  C   C217      1.0  0.93911  0.69527  0.35020  1.0000
  C   C218      1.0  0.97408  0.71324  0.35029  1.0000
  H   H199      1.0  0.98510  0.69927  0.35038  1.0000
  C   C219      1.0  0.54853  0.80185  0.35020  1.0000
  C   C220      1.0  0.58351  0.81982  0.35037  1.0000
  H   H200      1.0  0.53752  0.81581  0.35008  1.0000
  C   C221      1.0  0.82356  0.74758  0.35031  1.0000
  C   C222      1.0  0.80559  0.76459  0.35019  1.0000
  H   H201      1.0  0.81956  0.78957  0.35008  1.0000
  C   C223      1.0  0.71698  0.75044  0.35024  1.0000
  C   C224      1.0  0.69902  0.76745  0.35024  1.0000
  H   H202      1.0  0.70301  0.72546  0.35022  1.0000
  C   C225      1.0  0.77130  0.57977  0.35023  1.0000
  C   C226      1.0  0.75427  0.54480  0.35027  1.0000
  H   H203      1.0  0.72929  0.53379  0.35030  1.0000
  C   C227      1.0  0.76841  0.97034  0.35022  1.0000
  C   C228      1.0  0.75140  0.93536  0.35017  1.0000
  H   H204      1.0  0.79338  0.98134  0.35027  1.0000
  C   C229      1.0  0.61748  0.75051  0.26647  1.0000
  C   C230      1.0  0.64807  0.75052  0.26641  1.0000
  N   N73       1.0  0.60157  0.74971  0.18775  1.0000
  H   H205      1.0  0.57992  0.74766  0.18791  1.0000
  H   H206      1.0  0.60959  0.74883  0.12831  1.0000
  N   N74       1.0  0.66320  0.74981  0.18764  1.0000
  H   H207      1.0  0.68277  0.74770  0.18776  1.0000
  H   H208      1.0  0.65432  0.74901  0.12822  1.0000
  C   C231      1.0  0.76843  0.87079  0.26649  1.0000
  C   C232      1.0  0.76843  0.90138  0.26645  1.0000
  N   N75       1.0  0.76927  0.85571  0.18777  1.0000
  H   H209      1.0  0.77129  0.83609  0.18793  1.0000
  H   H210      1.0  0.77026  0.86467  0.12834  1.0000
  N   N76       1.0  0.76918  0.91723  0.18768  1.0000
  H   H211      1.0  0.77125  0.93890  0.18778  1.0000
  H   H212      1.0  0.77001  0.90916  0.12827  1.0000
  C   C233      1.0  0.64801  0.90147  0.26651  1.0000
  C   C234      1.0  0.61755  0.87077  0.26634  1.0000
  N   N77       1.0  0.66287  0.91766  0.18789  1.0000
  H   H213      1.0  0.68237  0.93939  0.18832  1.0000
  H   H214      1.0  0.65332  0.91022  0.12873  1.0000
  N   N78       1.0  0.60201  0.85544  0.18745  1.0000
  H   H215      1.0  0.58043  0.83572  0.18726  1.0000
  H   H216      1.0  0.61066  0.86379  0.12802  1.0000
  C   C235      1.0  0.90517  0.76471  0.26636  1.0000
  C   C236      1.0  0.87454  0.76461  0.26632  1.0000
  N   N79       1.0  0.92118  0.76572  0.18768  1.0000
  H   H217      1.0  0.94284  0.76778  0.18791  1.0000
  H   H218      1.0  0.91336  0.76702  0.12831  1.0000
  N   N80       1.0  0.85935  0.76520  0.18755  1.0000
  H   H219      1.0  0.83968  0.76714  0.18759  1.0000
  H   H220      1.0  0.86806  0.76567  0.12809  1.0000
  C   C237      1.0  0.75429  0.64433  0.26649  1.0000
  C   C238      1.0  0.75429  0.61375  0.26649  1.0000
  N   N81       1.0  0.75358  0.65947  0.18774  1.0000
  H   H221      1.0  0.75152  0.67907  0.18783  1.0000
  H   H222      1.0  0.75297  0.65070  0.12828  1.0000
  N   N82       1.0  0.75349  0.59786  0.18774  1.0000
  H   H223      1.0  0.75138  0.57617  0.18792  1.0000
  H   H224      1.0  0.75239  0.60578  0.12835  1.0000
  C   C239      1.0  0.87455  0.61372  0.26644  1.0000
  C   C240      1.0  0.90515  0.64430  0.26648  1.0000
  N   N83       1.0  0.85942  0.59787  0.18769  1.0000
  H   H225      1.0  0.83981  0.57621  0.18778  1.0000
  H   H226      1.0  0.86824  0.60599  0.12824  1.0000
  N   N84       1.0  0.92104  0.65939  0.18774  1.0000
  H   H227      1.0  0.94273  0.67896  0.18791  1.0000
  H   H228      1.0  0.91307  0.65041  0.12834  1.0000
  C   C241      1.0  0.99337  0.74857  0.35022  1.0000
  C   C242      1.0  0.97407  0.76461  0.35017  1.0000
  C   C243      1.0  0.93909  0.74758  0.35018  1.0000
  C   C244      1.0  0.92218  0.71296  0.35018  1.0000
  H   H229      1.0  0.98507  0.78958  0.35018  1.0000
  H   H230      1.0  0.89688  0.70031  0.35020  1.0000
  C   C245      1.0  0.52925  0.76652  0.35026  1.0000
  C   C246      1.0  0.60044  0.80213  0.35039  1.0000
  C   C247      1.0  0.58353  0.76751  0.35032  1.0000
  C   C248      1.0  0.54855  0.75049  0.35032  1.0000
  H   H231      1.0  0.62574  0.81479  0.35041  1.0000
  H   H232      1.0  0.53755  0.72551  0.35034  1.0000
  C   C249      1.0  0.77026  0.74855  0.35026  1.0000
  C   C250      1.0  0.75422  0.71322  0.35034  1.0000
  C   C251      1.0  0.77124  0.69526  0.35034  1.0000
  C   C252      1.0  0.80587  0.71296  0.35037  1.0000
  H   H233      1.0  0.72924  0.69924  0.35039  1.0000
  H   H234      1.0  0.81851  0.70031  0.35039  1.0000
  C   C253      1.0  0.75231  0.76648  0.35025  1.0000
  C   C254      1.0  0.71672  0.80207  0.35027  1.0000
  C   C255      1.0  0.75133  0.81976  0.35025  1.0000
  C   C256      1.0  0.76835  0.80181  0.35028  1.0000
  H   H235      1.0  0.70407  0.81472  0.35030  1.0000
  H   H236      1.0  0.79333  0.81578  0.35034  1.0000
  C   C257      1.0  0.77031  0.52550  0.35027  1.0000
  C   C258      1.0  0.80564  0.54478  0.35028  1.0000
  C   C259      1.0  0.82361  0.57976  0.35028  1.0000
  C   C260      1.0  0.80592  0.59669  0.35028  1.0000
  H   H237      1.0  0.81961  0.53378  0.35029  1.0000
  H   H238      1.0  0.81858  0.62199  0.35032  1.0000
  C   C261      1.0  0.75236  0.98962  0.35024  1.0000
  C   C262      1.0  0.71678  0.91843  0.35012  1.0000
  C   C263      1.0  0.69908  0.93535  0.35010  1.0000
  C   C264      1.0  0.71703  0.97032  0.35025  1.0000
  H   H239      1.0  0.70413  0.89313  0.35014  1.0000
  H   H240      1.0  0.70305  0.98133  0.35037  1.0000
  C   C265      1.0  0.66392  0.75187  0.35033  1.0000
  C   C266      1.0  0.64807  0.75047  0.43425  1.0000
  C   C267      1.0  0.61753  0.75056  0.43431  1.0000
  C   C268      1.0  0.60304  0.75193  0.35043  1.0000
  N   N85       1.0  0.60175  0.74996  0.51309  1.0000
  H   H241      1.0  0.60991  0.74933  0.57252  1.0000
  H   H242      1.0  0.58013  0.74798  0.51303  1.0000
  N   N86       1.0  0.66317  0.74962  0.51293  1.0000
  H   H243      1.0  0.68275  0.74754  0.51273  1.0000
  H   H244      1.0  0.65421  0.74863  0.57237  1.0000
  C   C269      1.0  0.76696  0.91585  0.35030  1.0000
  C   C270      1.0  0.76843  0.90139  0.43415  1.0000
  C   C271      1.0  0.76840  0.87079  0.43417  1.0000
  C   C272      1.0  0.76690  0.85484  0.35036  1.0000
  N   N87       1.0  0.76913  0.85567  0.51292  1.0000
  H   H245      1.0  0.77017  0.86467  0.57232  1.0000
  H   H246      1.0  0.77118  0.83606  0.51276  1.0000
  N   N88       1.0  0.76917  0.91726  0.51286  1.0000
  H   H247      1.0  0.77118  0.93890  0.51273  1.0000
  H   H248      1.0  0.76995  0.90919  0.57231  1.0000
  C   C273      1.0  0.60299  0.85492  0.35017  1.0000
  C   C274      1.0  0.61741  0.87077  0.43413  1.0000
  C   C275      1.0  0.64809  0.90125  0.43421  1.0000
  C   C276      1.0  0.66400  0.91580  0.35041  1.0000
  N   N89       1.0  0.66333  0.91695  0.51303  1.0000
  H   H249      1.0  0.65454  0.90876  0.57245  1.0000
  H   H250      1.0  0.68299  0.93857  0.51300  1.0000
  N   N90       1.0  0.60140  0.85573  0.51281  1.0000
  H   H251      1.0  0.57970  0.83619  0.51257  1.0000
  H   H252      1.0  0.60931  0.86474  0.57223  1.0000
  C   C277      1.0  0.85866  0.76318  0.35020  1.0000
  C   C278      1.0  0.87449  0.76453  0.43413  1.0000
  C   C279      1.0  0.90503  0.76443  0.43413  1.0000
  C   C280      1.0  0.91956  0.76314  0.35020  1.0000
  N   N91       1.0  0.92077  0.76495  0.51292  1.0000
  H   H253      1.0  0.91258  0.76553  0.57236  1.0000
  H   H254      1.0  0.94243  0.76702  0.51286  1.0000
  N   N92       1.0  0.85941  0.76538  0.51286  1.0000
  H   H255      1.0  0.83989  0.76757  0.51263  1.0000
  H   H256      1.0  0.86843  0.76649  0.57226  1.0000
  C   C281      1.0  0.75574  0.59929  0.35041  1.0000
  C   C282      1.0  0.75426  0.61373  0.43427  1.0000
  C   C283      1.0  0.75426  0.64431  0.43431  1.0000
  C   C284      1.0  0.75564  0.66017  0.35042  1.0000
  N   N93       1.0  0.75358  0.65946  0.51306  1.0000
  H   H257      1.0  0.75289  0.65065  0.57251  1.0000
  H   H258      1.0  0.75154  0.67908  0.51296  1.0000
  N   N94       1.0  0.75347  0.59783  0.51298  1.0000
  H   H259      1.0  0.75148  0.57620  0.51281  1.0000
  H   H260      1.0  0.75248  0.60579  0.57240  1.0000
  C   C285      1.0  0.91960  0.66019  0.35041  1.0000
  C   C286      1.0  0.90512  0.64429  0.43426  1.0000
  C   C287      1.0  0.87456  0.61369  0.43426  1.0000
  C   C288      1.0  0.85870  0.59925  0.35036  1.0000
  N   N95       1.0  0.85945  0.59779  0.51298  1.0000
  H   H261      1.0  0.86844  0.60574  0.57238  1.0000
  H   H262      1.0  0.83988  0.57610  0.51275  1.0000
  N   N96       1.0  0.92095  0.65945  0.51300  1.0000
  H   H263      1.0  0.94257  0.67910  0.51290  1.0000
  H   H264      1.0  0.91284  0.65063  0.57246  1.0000
