data_image0
_chemical_formula_structural       C2HNCHNC2OCH3C4H2CNCOCH3NCHC2HNCHNC2OCH3C4H2CNCOCH3NCHC2HCHC2OCH2CH3CHC3HC4H2COCH2CH3C2HCHC2OCH2CH3CHC3HC4H2COCH2CH3C2HC2HNC2OCH3NC2OC3HCHC4H2CNCOCH3CNCOC2HC2HNC2OCH3NC2OC3HCHC4H2CNCOCH3CNCOC2HNC2OCH3NC2OCH3C4H2CNCOCH3CNCOCH3C2HNC2OCH3NC2OCH3C4H2CNCOCH3CNCOCH3C2HC2HC2HC2HC2HC2HNC2OCH3NC2OCH3NC2OCH3NC2OCH3NC2OCH3NC2OCH3C4H2C4H2C4H2C4H2C4H2C4H2CNCOCH3CNCOCH3CNCOCH3CNCOCH3CNCOCH3CNCOCH3C2HC2HC2HC2HC2HC2HNC2OCH3NC2OCH3NC2OCH3NC2OCH3NC2OCH3NC2OCH3C4H2C4H2C4H2C4H2C4H2C4H2CNCOCH3CNCOCH3CNCOCH3CNCOCH3CNCOCH3CNCOCH3
_chemical_formula_sum              "C288 H216 N48 O48"
_cell_length_a       46.6063
_cell_length_b       46.6062
_cell_length_c       14.7955
_cell_angle_alpha    90
_cell_angle_beta     90
_cell_angle_gamma    120

_space_group_name_H-M_alt    "P 1"
_space_group_IT_number       1

loop_
  _space_group_symop_operation_xyz
  'x, y, z'

loop_
  _atom_site_type_symbol
  _atom_site_label
  _atom_site_symmetry_multiplicity
  _atom_site_fract_x
  _atom_site_fract_y
  _atom_site_fract_z
  _atom_site_occupancy
  C   C1        1.0  0.04773  0.30144  0.34683  1.0000
  C   C2        1.0  0.08281  0.31941  0.34869  1.0000
  H   H1        1.0  0.03667  0.31550  0.34496  1.0000
  N   N1        1.0  0.11815  0.25261  0.27241  1.0000
  C   C3        1.0  0.14633  0.25076  0.26648  1.0000
  H   H2        1.0  0.12693  0.21177  0.12323  1.0000
  N   N2        1.0  0.14816  0.39904  0.27214  1.0000
  C   C4        1.0  0.11812  0.37087  0.26654  1.0000
  C   C5        1.0  0.10209  0.35437  0.34740  1.0000
  O   O1        1.0  0.10867  0.35563  0.18420  1.0000
  C   C6        1.0  0.08671  0.36369  0.13691  1.0000
  H   H3        1.0  0.08044  0.35071  0.07229  1.0000
  H   H4        1.0  0.09851  0.39026  0.12331  1.0000
  H   H5        1.0  0.06373  0.35561  0.17451  1.0000
  C   C7        1.0  0.02840  0.26589  0.34781  1.0000
  C   C8        1.0  0.09986  0.30164  0.34977  1.0000
  C   C9        1.0  0.08283  0.26682  0.34951  1.0000
  C   C10       1.0  0.04773  0.24968  0.34910  1.0000
  H   H6        1.0  0.12532  0.31438  0.35026  1.0000
  H   H7        1.0  0.03668  0.22455  0.35007  1.0000
  C   C11       1.0  0.10212  0.25115  0.35071  1.0000
  N   N3        1.0  0.14859  0.25315  0.42534  1.0000
  C   C12       1.0  0.11861  0.25136  0.43143  1.0000
  O   O2        1.0  0.10945  0.25755  0.51370  1.0000
  C   C13       1.0  0.08755  0.22775  0.56195  1.0000
  H   H8        1.0  0.08152  0.23477  0.62646  1.0000
  H   H9        1.0  0.09930  0.21295  0.57580  1.0000
  H   H10       1.0  0.06444  0.21277  0.52496  1.0000
  N   N4        1.0  0.11858  0.36873  0.42535  1.0000
  C   C14       1.0  0.14677  0.39874  0.43103  1.0000
  H   H11       1.0  0.12771  0.41785  0.57586  1.0000
  C   C15       1.0  0.04773  0.80144  0.34683  1.0000
  C   C16       1.0  0.08281  0.81941  0.34869  1.0000
  H   H12       1.0  0.03667  0.81550  0.34496  1.0000
  N   N5        1.0  0.11815  0.75262  0.27241  1.0000
  C   C17       1.0  0.14633  0.75076  0.26648  1.0000
  H   H13       1.0  0.12693  0.71177  0.12323  1.0000
  N   N6        1.0  0.14816  0.89904  0.27214  1.0000
  C   C18       1.0  0.11812  0.87087  0.26654  1.0000
  C   C19       1.0  0.10209  0.85437  0.34740  1.0000
  O   O3        1.0  0.10867  0.85563  0.18420  1.0000
  C   C20       1.0  0.08671  0.86369  0.13691  1.0000
  H   H14       1.0  0.08044  0.85071  0.07229  1.0000
  H   H15       1.0  0.09851  0.89026  0.12331  1.0000
  H   H16       1.0  0.06373  0.85561  0.17451  1.0000
  C   C21       1.0  0.02840  0.76589  0.34781  1.0000
  C   C22       1.0  0.09986  0.80164  0.34977  1.0000
  C   C23       1.0  0.08283  0.76682  0.34951  1.0000
  C   C24       1.0  0.04773  0.74968  0.34910  1.0000
  H   H17       1.0  0.12532  0.81438  0.35026  1.0000
  H   H18       1.0  0.03668  0.72455  0.35007  1.0000
  C   C25       1.0  0.10212  0.75115  0.35071  1.0000
  N   N7        1.0  0.14859  0.75315  0.42534  1.0000
  C   C26       1.0  0.11860  0.75136  0.43143  1.0000
  O   O4        1.0  0.10945  0.75755  0.51370  1.0000
  C   C27       1.0  0.08755  0.72775  0.56195  1.0000
  H   H19       1.0  0.08152  0.73477  0.62646  1.0000
  H   H20       1.0  0.09930  0.71295  0.57580  1.0000
  H   H21       1.0  0.06444  0.71277  0.52496  1.0000
  N   N8        1.0  0.11858  0.86873  0.42535  1.0000
  C   C28       1.0  0.14677  0.89873  0.43103  1.0000
  H   H22       1.0  0.12770  0.91785  0.57586  1.0000
  C   C29       1.0  0.21581  0.24966  0.34693  1.0000
  C   C30       1.0  0.19784  0.26679  0.34823  1.0000
  H   H23       1.0  0.20174  0.22454  0.34531  1.0000
  C   C31       1.0  0.25318  0.04427  0.34709  1.0000
  H   H24       1.0  0.22806  0.03322  0.34541  1.0000
  C   C32       1.0  0.25049  0.43455  0.34783  1.0000
  C   C33       1.0  0.16288  0.25111  0.34714  1.0000
  O   O5        1.0  0.16150  0.25660  0.18402  1.0000
  C   C34       1.0  0.15350  0.22661  0.13666  1.0000
  H   H25       1.0  0.16643  0.23338  0.07195  1.0000
  H   H26       1.0  0.16170  0.21178  0.17410  1.0000
  C   C35       1.0  0.23030  0.08358  0.13691  1.0000
  H   H27       1.0  0.23711  0.07738  0.07234  1.0000
  H   H28       1.0  0.21558  0.09543  0.12323  1.0000
  H   H29       1.0  0.21532  0.06056  0.17427  1.0000
  C   C36       1.0  0.25316  0.21236  0.34929  1.0000
  H   H30       1.0  0.22803  0.19829  0.35069  1.0000
  C   C37       1.0  0.25135  0.26588  0.34792  1.0000
  C   C38       1.0  0.21562  0.30160  0.34895  1.0000
  C   C39       1.0  0.25044  0.31937  0.34902  1.0000
  H   H31       1.0  0.20289  0.31434  0.34922  1.0000
  C   C40       1.0  0.25138  0.48894  0.34781  1.0000
  C   C41       1.0  0.21567  0.41748  0.34850  1.0000
  C   C42       1.0  0.19788  0.43451  0.34880  1.0000
  C   C43       1.0  0.21584  0.46961  0.34902  1.0000
  H   H32       1.0  0.20296  0.39202  0.34867  1.0000
  H   H33       1.0  0.20176  0.48065  0.35036  1.0000
  C   C44       1.0  0.16294  0.41521  0.35013  1.0000
  O   O6        1.0  0.16223  0.40795  0.51314  1.0000
  C   C45       1.0  0.15424  0.42973  0.56170  1.0000
  H   H34       1.0  0.16739  0.43581  0.62606  1.0000
  H   H35       1.0  0.16220  0.45282  0.52478  1.0000
  C   C46       1.0  0.23095  0.15069  0.56167  1.0000
  H   H36       1.0  0.23792  0.16379  0.62610  1.0000
  H   H37       1.0  0.21621  0.12415  0.57565  1.0000
  H   H38       1.0  0.21593  0.15873  0.52450  1.0000
  C   C47       1.0  0.21581  0.74967  0.34693  1.0000
  C   C48       1.0  0.19784  0.76679  0.34823  1.0000
  H   H39       1.0  0.20174  0.72454  0.34531  1.0000
  C   C49       1.0  0.25318  0.54427  0.34709  1.0000
  H   H40       1.0  0.22806  0.53322  0.34541  1.0000
  C   C50       1.0  0.25049  0.93455  0.34783  1.0000
  C   C51       1.0  0.16288  0.75111  0.34714  1.0000
  O   O7        1.0  0.16150  0.75660  0.18402  1.0000
  C   C52       1.0  0.15350  0.72661  0.13666  1.0000
  H   H41       1.0  0.16643  0.73338  0.07195  1.0000
  H   H42       1.0  0.16170  0.71178  0.17410  1.0000
  C   C53       1.0  0.23030  0.58358  0.13691  1.0000
  H   H43       1.0  0.23711  0.57739  0.07234  1.0000
  H   H44       1.0  0.21558  0.59543  0.12323  1.0000
  H   H45       1.0  0.21532  0.56056  0.17427  1.0000
  C   C54       1.0  0.25316  0.71236  0.34929  1.0000
  H   H46       1.0  0.22803  0.69829  0.35069  1.0000
  C   C55       1.0  0.25135  0.76589  0.34792  1.0000
  C   C56       1.0  0.21562  0.80160  0.34895  1.0000
  C   C57       1.0  0.25044  0.81937  0.34902  1.0000
  H   H47       1.0  0.20289  0.81434  0.34922  1.0000
  C   C58       1.0  0.25138  0.98894  0.34781  1.0000
  C   C59       1.0  0.21567  0.91748  0.34850  1.0000
  C   C60       1.0  0.19788  0.93451  0.34880  1.0000
  C   C61       1.0  0.21584  0.96961  0.34902  1.0000
  H   H48       1.0  0.20296  0.89202  0.34867  1.0000
  H   H49       1.0  0.20176  0.98066  0.35036  1.0000
  C   C62       1.0  0.16294  0.91521  0.35013  1.0000
  O   O8        1.0  0.16223  0.90795  0.51314  1.0000
  C   C63       1.0  0.15424  0.92973  0.56170  1.0000
  H   H50       1.0  0.16739  0.93581  0.62606  1.0000
  H   H51       1.0  0.16220  0.95281  0.52478  1.0000
  C   C64       1.0  0.23095  0.65069  0.56167  1.0000
  H   H52       1.0  0.23792  0.66379  0.62610  1.0000
  H   H53       1.0  0.21621  0.62415  0.57565  1.0000
  H   H54       1.0  0.21593  0.65873  0.52450  1.0000
  C   C65       1.0  0.32289  0.24699  0.34809  1.0000
  C   C66       1.0  0.30492  0.26412  0.34674  1.0000
  H   H55       1.0  0.31899  0.28924  0.34499  1.0000
  C   C67       1.0  0.27031  0.07935  0.34868  1.0000
  C   C68       1.0  0.26761  0.46964  0.34675  1.0000
  H   H56       1.0  0.29274  0.48069  0.34525  1.0000
  N   N9        1.0  0.26464  0.36898  0.27218  1.0000
  C   C69       1.0  0.26651  0.39901  0.26620  1.0000
  C   C70       1.0  0.26619  0.41532  0.34670  1.0000
  O   O9        1.0  0.26062  0.40827  0.18370  1.0000
  C   C71       1.0  0.29058  0.43026  0.13621  1.0000
  H   H57       1.0  0.28378  0.43636  0.07148  1.0000
  H   H58       1.0  0.30545  0.41855  0.12284  1.0000
  H   H59       1.0  0.30541  0.45332  0.17353  1.0000
  N   N10       1.0  0.25619  0.14485  0.27243  1.0000
  C   C72       1.0  0.25436  0.11483  0.26693  1.0000
  C   C73       1.0  0.25463  0.09861  0.34773  1.0000
  O   O10       1.0  0.26026  0.10546  0.18458  1.0000
  C   C74       1.0  0.26938  0.24790  0.34792  1.0000
  C   C75       1.0  0.27030  0.19441  0.34908  1.0000
  C   C76       1.0  0.30512  0.21218  0.34888  1.0000
  H   H60       1.0  0.31784  0.19944  0.34912  1.0000
  C   C77       1.0  0.26757  0.30142  0.34911  1.0000
  H   H61       1.0  0.29270  0.31549  0.35036  1.0000
  C   C78       1.0  0.26941  0.02496  0.34793  1.0000
  C   C79       1.0  0.30495  0.04428  0.34907  1.0000
  C   C80       1.0  0.32291  0.07938  0.34946  1.0000
  C   C81       1.0  0.30513  0.09641  0.34973  1.0000
  H   H62       1.0  0.31903  0.03324  0.34998  1.0000
  H   H63       1.0  0.31785  0.12187  0.35023  1.0000
  C   C82       1.0  0.26612  0.35430  0.35025  1.0000
  N   N11       1.0  0.26414  0.39886  0.42470  1.0000
  C   C83       1.0  0.26592  0.37067  0.43083  1.0000
  O   O11       1.0  0.25967  0.35534  0.51313  1.0000
  C   C84       1.0  0.28943  0.36325  0.56164  1.0000
  H   H64       1.0  0.28235  0.35021  0.62615  1.0000
  H   H65       1.0  0.30421  0.38980  0.57547  1.0000
  H   H66       1.0  0.30445  0.35513  0.52483  1.0000
  C   C85       1.0  0.25460  0.15946  0.35046  1.0000
  N   N12       1.0  0.25653  0.11508  0.42557  1.0000
  C   C86       1.0  0.25467  0.14324  0.43139  1.0000
  O   O12       1.0  0.26079  0.15864  0.51355  1.0000
  C   C87       1.0  0.32289  0.74699  0.34809  1.0000
  C   C88       1.0  0.30492  0.76412  0.34674  1.0000
  H   H67       1.0  0.31899  0.78924  0.34499  1.0000
  C   C89       1.0  0.27031  0.57935  0.34868  1.0000
  C   C90       1.0  0.26761  0.96963  0.34675  1.0000
  H   H68       1.0  0.29274  0.98069  0.34525  1.0000
  N   N13       1.0  0.26464  0.86898  0.27218  1.0000
  C   C91       1.0  0.26651  0.89901  0.26620  1.0000
  C   C92       1.0  0.26619  0.91532  0.34670  1.0000
  O   O13       1.0  0.26062  0.90827  0.18370  1.0000
  C   C93       1.0  0.29058  0.93026  0.13621  1.0000
  H   H69       1.0  0.28378  0.93636  0.07148  1.0000
  H   H70       1.0  0.30545  0.91855  0.12284  1.0000
  H   H71       1.0  0.30541  0.95332  0.17353  1.0000
  N   N14       1.0  0.25619  0.64485  0.27243  1.0000
  C   C94       1.0  0.25436  0.61483  0.26693  1.0000
  C   C95       1.0  0.25463  0.59861  0.34773  1.0000
  O   O14       1.0  0.26026  0.60546  0.18458  1.0000
  C   C96       1.0  0.26938  0.74790  0.34792  1.0000
  C   C97       1.0  0.27030  0.69441  0.34908  1.0000
  C   C98       1.0  0.30512  0.71218  0.34888  1.0000
  H   H72       1.0  0.31784  0.69944  0.34912  1.0000
  C   C99       1.0  0.26757  0.80142  0.34911  1.0000
  H   H73       1.0  0.29270  0.81549  0.35036  1.0000
  C   C100      1.0  0.26941  0.52496  0.34793  1.0000
  C   C101      1.0  0.30495  0.54428  0.34907  1.0000
  C   C102      1.0  0.32291  0.57938  0.34946  1.0000
  C   C103      1.0  0.30512  0.59641  0.34973  1.0000
  H   H74       1.0  0.31903  0.53324  0.34998  1.0000
  H   H75       1.0  0.31785  0.62187  0.35023  1.0000
  C   C104      1.0  0.26612  0.85430  0.35025  1.0000
  N   N15       1.0  0.26414  0.89886  0.42470  1.0000
  C   C105      1.0  0.26592  0.87067  0.43083  1.0000
  O   O15       1.0  0.25967  0.85534  0.51313  1.0000
  C   C106      1.0  0.28943  0.86325  0.56164  1.0000
  H   H76       1.0  0.28235  0.85021  0.62615  1.0000
  H   H77       1.0  0.30421  0.88980  0.57547  1.0000
  H   H78       1.0  0.30445  0.85513  0.52483  1.0000
  C   C107      1.0  0.25460  0.65946  0.35046  1.0000
  N   N16       1.0  0.25653  0.61508  0.42557  1.0000
  C   C108      1.0  0.25467  0.64324  0.43139  1.0000
  O   O16       1.0  0.26079  0.65864  0.51355  1.0000
  C   C109      1.0  0.43796  0.19437  0.34767  1.0000
  C   C110      1.0  0.47306  0.21234  0.34670  1.0000
  H   H79       1.0  0.48411  0.19827  0.34535  1.0000
  N   N17       1.0  0.40249  0.26118  0.27164  1.0000
  C   C111      1.0  0.37433  0.26307  0.26596  1.0000
  C   C112      1.0  0.35785  0.26267  0.34678  1.0000
  O   O17       1.0  0.35910  0.25725  0.18361  1.0000
  C   C113      1.0  0.36711  0.28726  0.13632  1.0000
  H   H80       1.0  0.35413  0.28052  0.07169  1.0000
  H   H81       1.0  0.39367  0.30206  0.12275  1.0000
  H   H82       1.0  0.35898  0.30212  0.17390  1.0000
  N   N18       1.0  0.37240  0.11467  0.27219  1.0000
  C   C114      1.0  0.40243  0.14283  0.26612  1.0000
  C   C115      1.0  0.41868  0.15941  0.34671  1.0000
  O   O18       1.0  0.41172  0.15796  0.18361  1.0000
  C   C116      1.0  0.43375  0.14999  0.13629  1.0000
  H   H83       1.0  0.43988  0.16288  0.07154  1.0000
  H   H84       1.0  0.42205  0.12341  0.12298  1.0000
  H   H85       1.0  0.45679  0.15824  0.17371  1.0000
  C   C117      1.0  0.49238  0.24788  0.34765  1.0000
  C   C118      1.0  0.47305  0.26410  0.34875  1.0000
  C   C119      1.0  0.43796  0.24696  0.34844  1.0000
  C   C120      1.0  0.42092  0.21214  0.34816  1.0000
  H   H86       1.0  0.48410  0.28922  0.35007  1.0000
  H   H87       1.0  0.39545  0.19941  0.34829  1.0000
  C   C121      1.0  0.41866  0.26262  0.34965  1.0000
  N   N19       1.0  0.37222  0.26060  0.42478  1.0000
  C   C122      1.0  0.40221  0.26239  0.43052  1.0000
  O   O19       1.0  0.41142  0.25618  0.51268  1.0000
  C   C123      1.0  0.43322  0.28597  0.56114  1.0000
  H   H88       1.0  0.43930  0.27893  0.62554  1.0000
  H   H89       1.0  0.42136  0.30065  0.57521  1.0000
  H   H90       1.0  0.45631  0.30108  0.52419  1.0000
  C   C124      1.0  0.35787  0.09867  0.35055  1.0000
  N   N20       1.0  0.40239  0.14516  0.42499  1.0000
  C   C125      1.0  0.37418  0.11519  0.43120  1.0000
  O   O20       1.0  0.35888  0.10608  0.51352  1.0000
  C   C126      1.0  0.36675  0.08416  0.56179  1.0000
  H   H91       1.0  0.35373  0.07818  0.62634  1.0000
  H   H92       1.0  0.39331  0.09588  0.57555  1.0000
  H   H93       1.0  0.35858  0.06104  0.52485  1.0000
  C   C127      1.0  0.43796  0.69437  0.34767  1.0000
  C   C128      1.0  0.47306  0.71234  0.34670  1.0000
  H   H94       1.0  0.48411  0.69827  0.34535  1.0000
  N   N21       1.0  0.40249  0.76118  0.27164  1.0000
  C   C129      1.0  0.37433  0.76307  0.26596  1.0000
  C   C130      1.0  0.35785  0.76267  0.34678  1.0000
  O   O21       1.0  0.35910  0.75725  0.18361  1.0000
  C   C131      1.0  0.36711  0.78726  0.13632  1.0000
  H   H95       1.0  0.35413  0.78052  0.07169  1.0000
  H   H96       1.0  0.39367  0.80207  0.12275  1.0000
  H   H97       1.0  0.35898  0.80212  0.17390  1.0000
  N   N22       1.0  0.37240  0.61467  0.27219  1.0000
  C   C132      1.0  0.40243  0.64283  0.26612  1.0000
  C   C133      1.0  0.41868  0.65941  0.34671  1.0000
  O   O22       1.0  0.41172  0.65796  0.18361  1.0000
  C   C134      1.0  0.43374  0.64999  0.13629  1.0000
  H   H98       1.0  0.43987  0.66288  0.07154  1.0000
  H   H99       1.0  0.42205  0.62341  0.12298  1.0000
  H   H100      1.0  0.45679  0.65824  0.17371  1.0000
  C   C135      1.0  0.49238  0.74788  0.34765  1.0000
  C   C136      1.0  0.47305  0.76410  0.34875  1.0000
  C   C137      1.0  0.43796  0.74696  0.34844  1.0000
  C   C138      1.0  0.42092  0.71214  0.34816  1.0000
  H   H101      1.0  0.48411  0.78922  0.35007  1.0000
  H   H102      1.0  0.39546  0.69941  0.34829  1.0000
  C   C139      1.0  0.41866  0.76262  0.34965  1.0000
  N   N23       1.0  0.37222  0.76061  0.42478  1.0000
  C   C140      1.0  0.40221  0.76239  0.43052  1.0000
  O   O23       1.0  0.41142  0.75619  0.51268  1.0000
  C   C141      1.0  0.43322  0.78597  0.56114  1.0000
  H   H103      1.0  0.43930  0.77893  0.62554  1.0000
  H   H104      1.0  0.42136  0.80065  0.57521  1.0000
  H   H105      1.0  0.45631  0.80108  0.52419  1.0000
  C   C142      1.0  0.35787  0.59867  0.35055  1.0000
  N   N24       1.0  0.40239  0.64516  0.42499  1.0000
  C   C143      1.0  0.37418  0.61518  0.43120  1.0000
  O   O24       1.0  0.35888  0.60608  0.51352  1.0000
  C   C144      1.0  0.36675  0.58416  0.56179  1.0000
  H   H106      1.0  0.35373  0.57818  0.62634  1.0000
  H   H107      1.0  0.39331  0.59588  0.57555  1.0000
  H   H108      1.0  0.35858  0.56103  0.52485  1.0000
  C   C145      1.0  0.93796  0.19437  0.34767  1.0000
  C   C146      1.0  0.97306  0.21234  0.34670  1.0000
  H   H109      1.0  0.98411  0.19827  0.34535  1.0000
  C   C147      1.0  0.54773  0.30144  0.34683  1.0000
  C   C148      1.0  0.58281  0.31941  0.34869  1.0000
  H   H110      1.0  0.53667  0.31550  0.34496  1.0000
  C   C149      1.0  0.82289  0.24699  0.34809  1.0000
  C   C150      1.0  0.80492  0.26412  0.34674  1.0000
  H   H111      1.0  0.81899  0.28924  0.34499  1.0000
  C   C151      1.0  0.71581  0.24966  0.34693  1.0000
  C   C152      1.0  0.69784  0.26679  0.34823  1.0000
  H   H112      1.0  0.70174  0.22454  0.34531  1.0000
  C   C153      1.0  0.77031  0.07935  0.34868  1.0000
  C   C154      1.0  0.75318  0.04427  0.34709  1.0000
  H   H113      1.0  0.72806  0.03322  0.34541  1.0000
  C   C155      1.0  0.76761  0.46964  0.34675  1.0000
  C   C156      1.0  0.75049  0.43455  0.34783  1.0000
  H   H114      1.0  0.79273  0.48069  0.34525  1.0000
  N   N25       1.0  0.61816  0.25261  0.27241  1.0000
  C   C157      1.0  0.64633  0.25076  0.26648  1.0000
  C   C158      1.0  0.66288  0.25111  0.34714  1.0000
  O   O25       1.0  0.66150  0.25660  0.18402  1.0000
  C   C159      1.0  0.65350  0.22661  0.13666  1.0000
  H   H115      1.0  0.66643  0.23338  0.07195  1.0000
  H   H116      1.0  0.62693  0.21177  0.12323  1.0000
  H   H117      1.0  0.66170  0.21178  0.17410  1.0000
  N   N26       1.0  0.76463  0.36898  0.27218  1.0000
  C   C160      1.0  0.76651  0.39901  0.26620  1.0000
  C   C161      1.0  0.76619  0.41532  0.34670  1.0000
  O   O26       1.0  0.76062  0.40827  0.18370  1.0000
  C   C162      1.0  0.79058  0.43026  0.13621  1.0000
  H   H118      1.0  0.78378  0.43636  0.07148  1.0000
  H   H119      1.0  0.80545  0.41855  0.12284  1.0000
  H   H120      1.0  0.80541  0.45332  0.17353  1.0000
  N   N27       1.0  0.64816  0.39904  0.27214  1.0000
  C   C163      1.0  0.61812  0.37087  0.26654  1.0000
  C   C164      1.0  0.60209  0.35437  0.34740  1.0000
  O   O27       1.0  0.60867  0.35563  0.18420  1.0000
  C   C165      1.0  0.58671  0.36369  0.13691  1.0000
  H   H121      1.0  0.58044  0.35071  0.07229  1.0000
  H   H122      1.0  0.59851  0.39026  0.12331  1.0000
  H   H123      1.0  0.56373  0.35561  0.17451  1.0000
  N   N28       1.0  0.90249  0.26118  0.27164  1.0000
  C   C166      1.0  0.87433  0.26307  0.26596  1.0000
  C   C167      1.0  0.85785  0.26267  0.34678  1.0000
  O   O28       1.0  0.85910  0.25725  0.18361  1.0000
  C   C168      1.0  0.86711  0.28726  0.13632  1.0000
  H   H124      1.0  0.85413  0.28052  0.07169  1.0000
  H   H125      1.0  0.89367  0.30206  0.12275  1.0000
  H   H126      1.0  0.85898  0.30212  0.17390  1.0000
  N   N29       1.0  0.75619  0.14485  0.27243  1.0000
  C   C169      1.0  0.75436  0.11483  0.26693  1.0000
  C   C170      1.0  0.75463  0.09861  0.34773  1.0000
  O   O29       1.0  0.76026  0.10546  0.18458  1.0000
  C   C171      1.0  0.73030  0.08358  0.13691  1.0000
  H   H127      1.0  0.73711  0.07738  0.07234  1.0000
  H   H128      1.0  0.71558  0.09543  0.12323  1.0000
  H   H129      1.0  0.71532  0.06056  0.17427  1.0000
  N   N30       1.0  0.87240  0.11467  0.27219  1.0000
  C   C172      1.0  0.90243  0.14283  0.26612  1.0000
  C   C173      1.0  0.91869  0.15941  0.34671  1.0000
  O   O30       1.0  0.91172  0.15796  0.18361  1.0000
  C   C174      1.0  0.93375  0.14999  0.13629  1.0000
  H   H130      1.0  0.93987  0.16288  0.07154  1.0000
  H   H131      1.0  0.92205  0.12341  0.12298  1.0000
  H   H132      1.0  0.95679  0.15824  0.17371  1.0000
  C   C175      1.0  0.99238  0.24788  0.34765  1.0000
  C   C176      1.0  0.97305  0.26410  0.34875  1.0000
  C   C177      1.0  0.93796  0.24696  0.34844  1.0000
  C   C178      1.0  0.92092  0.21214  0.34816  1.0000
  H   H133      1.0  0.98410  0.28922  0.35007  1.0000
  H   H134      1.0  0.89545  0.19941  0.34829  1.0000
  C   C179      1.0  0.52840  0.26589  0.34781  1.0000
  C   C180      1.0  0.59986  0.30164  0.34977  1.0000
  C   C181      1.0  0.58283  0.26682  0.34951  1.0000
  C   C182      1.0  0.54773  0.24968  0.34910  1.0000
  H   H135      1.0  0.62533  0.31438  0.35026  1.0000
  H   H136      1.0  0.53668  0.22455  0.35007  1.0000
  C   C183      1.0  0.76938  0.24790  0.34792  1.0000
  C   C184      1.0  0.75316  0.21236  0.34929  1.0000
  C   C185      1.0  0.77030  0.19441  0.34908  1.0000
  C   C186      1.0  0.80512  0.21218  0.34888  1.0000
  H   H137      1.0  0.72803  0.19829  0.35069  1.0000
  H   H138      1.0  0.81784  0.19944  0.34912  1.0000
  C   C187      1.0  0.75135  0.26588  0.34792  1.0000
  C   C188      1.0  0.71562  0.30160  0.34895  1.0000
  C   C189      1.0  0.75044  0.31937  0.34902  1.0000
  C   C190      1.0  0.76757  0.30142  0.34911  1.0000
  H   H139      1.0  0.70289  0.31434  0.34922  1.0000
  H   H140      1.0  0.79270  0.31549  0.35036  1.0000
  C   C191      1.0  0.76941  0.02496  0.34793  1.0000
  C   C192      1.0  0.80495  0.04428  0.34907  1.0000
  C   C193      1.0  0.82291  0.07938  0.34946  1.0000
  C   C194      1.0  0.80512  0.09641  0.34973  1.0000
  H   H141      1.0  0.81903  0.03324  0.34998  1.0000
  H   H142      1.0  0.81785  0.12187  0.35023  1.0000
  C   C195      1.0  0.75138  0.48894  0.34781  1.0000
  C   C196      1.0  0.71567  0.41748  0.34850  1.0000
  C   C197      1.0  0.69788  0.43451  0.34880  1.0000
  C   C198      1.0  0.71584  0.46961  0.34902  1.0000
  H   H143      1.0  0.70296  0.39202  0.34867  1.0000
  H   H144      1.0  0.70176  0.48065  0.35036  1.0000
  C   C199      1.0  0.60212  0.25115  0.35071  1.0000
  N   N31       1.0  0.64859  0.25315  0.42534  1.0000
  C   C200      1.0  0.61860  0.25136  0.43143  1.0000
  O   O31       1.0  0.60945  0.25755  0.51370  1.0000
  C   C201      1.0  0.58755  0.22775  0.56195  1.0000
  H   H145      1.0  0.58152  0.23477  0.62646  1.0000
  H   H146      1.0  0.59930  0.21295  0.57580  1.0000
  H   H147      1.0  0.56444  0.21277  0.52496  1.0000
  C   C202      1.0  0.76612  0.35430  0.35025  1.0000
  N   N32       1.0  0.76414  0.39886  0.42470  1.0000
  C   C203      1.0  0.76592  0.37067  0.43083  1.0000
  O   O32       1.0  0.75967  0.35534  0.51313  1.0000
  C   C204      1.0  0.78943  0.36325  0.56164  1.0000
  H   H148      1.0  0.78235  0.35021  0.62615  1.0000
  H   H149      1.0  0.80421  0.38980  0.57547  1.0000
  H   H150      1.0  0.80445  0.35513  0.52483  1.0000
  C   C205      1.0  0.66294  0.41521  0.35013  1.0000
  N   N33       1.0  0.61858  0.36873  0.42535  1.0000
  C   C206      1.0  0.64677  0.39874  0.43103  1.0000
  O   O33       1.0  0.66223  0.40795  0.51314  1.0000
  C   C207      1.0  0.65424  0.42973  0.56170  1.0000
  H   H151      1.0  0.66739  0.43581  0.62606  1.0000
  H   H152      1.0  0.62770  0.41785  0.57586  1.0000
  H   H153      1.0  0.66220  0.45282  0.52478  1.0000
  C   C208      1.0  0.91866  0.26262  0.34965  1.0000
  N   N34       1.0  0.87222  0.26060  0.42478  1.0000
  C   C209      1.0  0.90221  0.26239  0.43052  1.0000
  O   O34       1.0  0.91142  0.25618  0.51268  1.0000
  C   C210      1.0  0.93322  0.28597  0.56114  1.0000
  H   H154      1.0  0.93930  0.27893  0.62554  1.0000
  H   H155      1.0  0.92136  0.30065  0.57521  1.0000
  H   H156      1.0  0.95631  0.30108  0.52419  1.0000
  C   C211      1.0  0.75460  0.15946  0.35046  1.0000
  N   N35       1.0  0.75653  0.11508  0.42557  1.0000
  C   C212      1.0  0.75467  0.14324  0.43139  1.0000
  O   O35       1.0  0.76079  0.15864  0.51355  1.0000
  C   C213      1.0  0.73095  0.15069  0.56167  1.0000
  H   H157      1.0  0.73792  0.16379  0.62610  1.0000
  H   H158      1.0  0.71621  0.12415  0.57565  1.0000
  H   H159      1.0  0.71593  0.15873  0.52450  1.0000
  C   C214      1.0  0.85787  0.09867  0.35055  1.0000
  N   N36       1.0  0.90239  0.14516  0.42499  1.0000
  C   C215      1.0  0.87419  0.11519  0.43120  1.0000
  O   O36       1.0  0.85888  0.10608  0.51352  1.0000
  C   C216      1.0  0.86676  0.08416  0.56179  1.0000
  H   H160      1.0  0.85374  0.07818  0.62634  1.0000
  H   H161      1.0  0.89330  0.09588  0.57555  1.0000
  H   H162      1.0  0.85858  0.06104  0.52485  1.0000
  C   C217      1.0  0.93796  0.69437  0.34767  1.0000
  C   C218      1.0  0.97306  0.71234  0.34670  1.0000
  H   H163      1.0  0.98411  0.69827  0.34535  1.0000
  C   C219      1.0  0.54773  0.80144  0.34683  1.0000
  C   C220      1.0  0.58281  0.81941  0.34869  1.0000
  H   H164      1.0  0.53667  0.81550  0.34496  1.0000
  C   C221      1.0  0.82289  0.74699  0.34809  1.0000
  C   C222      1.0  0.80492  0.76412  0.34674  1.0000
  H   H165      1.0  0.81899  0.78924  0.34499  1.0000
  C   C223      1.0  0.71581  0.74967  0.34693  1.0000
  C   C224      1.0  0.69784  0.76679  0.34823  1.0000
  H   H166      1.0  0.70174  0.72454  0.34531  1.0000
  C   C225      1.0  0.77031  0.57935  0.34868  1.0000
  C   C226      1.0  0.75318  0.54427  0.34709  1.0000
  H   H167      1.0  0.72806  0.53322  0.34541  1.0000
  C   C227      1.0  0.76761  0.96963  0.34675  1.0000
  C   C228      1.0  0.75049  0.93455  0.34783  1.0000
  H   H168      1.0  0.79273  0.98069  0.34525  1.0000
  N   N37       1.0  0.61815  0.75262  0.27241  1.0000
  C   C229      1.0  0.64633  0.75076  0.26648  1.0000
  C   C230      1.0  0.66288  0.75111  0.34714  1.0000
  O   O37       1.0  0.66150  0.75660  0.18402  1.0000
  C   C231      1.0  0.65350  0.72661  0.13666  1.0000
  H   H169      1.0  0.66643  0.73338  0.07195  1.0000
  H   H170      1.0  0.62693  0.71177  0.12323  1.0000
  H   H171      1.0  0.66170  0.71178  0.17410  1.0000
  N   N38       1.0  0.76463  0.86898  0.27218  1.0000
  C   C232      1.0  0.76651  0.89901  0.26620  1.0000
  C   C233      1.0  0.76619  0.91532  0.34670  1.0000
  O   O38       1.0  0.76062  0.90827  0.18370  1.0000
  C   C234      1.0  0.79058  0.93026  0.13621  1.0000
  H   H172      1.0  0.78378  0.93636  0.07148  1.0000
  H   H173      1.0  0.80545  0.91855  0.12284  1.0000
  H   H174      1.0  0.80541  0.95332  0.17353  1.0000
  N   N39       1.0  0.64816  0.89904  0.27214  1.0000
  C   C235      1.0  0.61812  0.87087  0.26654  1.0000
  C   C236      1.0  0.60209  0.85437  0.34740  1.0000
  O   O39       1.0  0.60867  0.85563  0.18420  1.0000
  C   C237      1.0  0.58671  0.86369  0.13691  1.0000
  H   H175      1.0  0.58044  0.85071  0.07229  1.0000
  H   H176      1.0  0.59851  0.89026  0.12331  1.0000
  H   H177      1.0  0.56373  0.85561  0.17451  1.0000
  N   N40       1.0  0.90249  0.76118  0.27164  1.0000
  C   C238      1.0  0.87433  0.76307  0.26596  1.0000
  C   C239      1.0  0.85785  0.76267  0.34678  1.0000
  O   O40       1.0  0.85910  0.75725  0.18361  1.0000
  C   C240      1.0  0.86711  0.78726  0.13632  1.0000
  H   H178      1.0  0.85413  0.78052  0.07169  1.0000
  H   H179      1.0  0.89367  0.80207  0.12275  1.0000
  H   H180      1.0  0.85898  0.80212  0.17390  1.0000
  N   N41       1.0  0.75619  0.64485  0.27243  1.0000
  C   C241      1.0  0.75436  0.61483  0.26693  1.0000
  C   C242      1.0  0.75463  0.59861  0.34773  1.0000
  O   O41       1.0  0.76026  0.60546  0.18458  1.0000
  C   C243      1.0  0.73030  0.58358  0.13691  1.0000
  H   H181      1.0  0.73711  0.57739  0.07234  1.0000
  H   H182      1.0  0.71558  0.59543  0.12323  1.0000
  H   H183      1.0  0.71532  0.56056  0.17427  1.0000
  N   N42       1.0  0.87240  0.61467  0.27219  1.0000
  C   C244      1.0  0.90243  0.64283  0.26612  1.0000
  C   C245      1.0  0.91868  0.65941  0.34671  1.0000
  O   O42       1.0  0.91172  0.65796  0.18361  1.0000
  C   C246      1.0  0.93374  0.64999  0.13629  1.0000
  H   H184      1.0  0.93987  0.66288  0.07154  1.0000
  H   H185      1.0  0.92205  0.62341  0.12298  1.0000
  H   H186      1.0  0.95679  0.65824  0.17371  1.0000
  C   C247      1.0  0.99238  0.74788  0.34765  1.0000
  C   C248      1.0  0.97305  0.76410  0.34875  1.0000
  C   C249      1.0  0.93796  0.74696  0.34844  1.0000
  C   C250      1.0  0.92092  0.71214  0.34816  1.0000
  H   H187      1.0  0.98410  0.78922  0.35007  1.0000
  H   H188      1.0  0.89545  0.69941  0.34829  1.0000
  C   C251      1.0  0.52840  0.76589  0.34781  1.0000
  C   C252      1.0  0.59986  0.80164  0.34977  1.0000
  C   C253      1.0  0.58283  0.76682  0.34951  1.0000
  C   C254      1.0  0.54773  0.74968  0.34910  1.0000
  H   H189      1.0  0.62532  0.81438  0.35026  1.0000
  H   H190      1.0  0.53668  0.72455  0.35007  1.0000
  C   C255      1.0  0.76938  0.74790  0.34792  1.0000
  C   C256      1.0  0.75316  0.71236  0.34929  1.0000
  C   C257      1.0  0.77029  0.69441  0.34908  1.0000
  C   C258      1.0  0.80512  0.71218  0.34888  1.0000
  H   H191      1.0  0.72803  0.69829  0.35069  1.0000
  H   H192      1.0  0.81784  0.69944  0.34912  1.0000
  C   C259      1.0  0.75135  0.76589  0.34792  1.0000
  C   C260      1.0  0.71562  0.80160  0.34895  1.0000
  C   C261      1.0  0.75044  0.81937  0.34902  1.0000
  C   C262      1.0  0.76757  0.80142  0.34911  1.0000
  H   H193      1.0  0.70289  0.81434  0.34922  1.0000
  H   H194      1.0  0.79270  0.81549  0.35036  1.0000
  C   C263      1.0  0.76941  0.52496  0.34793  1.0000
  C   C264      1.0  0.80495  0.54428  0.34907  1.0000
  C   C265      1.0  0.82291  0.57938  0.34946  1.0000
  C   C266      1.0  0.80512  0.59641  0.34973  1.0000
  H   H195      1.0  0.81903  0.53324  0.34998  1.0000
  H   H196      1.0  0.81785  0.62187  0.35023  1.0000
  C   C267      1.0  0.75138  0.98894  0.34781  1.0000
  C   C268      1.0  0.71567  0.91748  0.34850  1.0000
  C   C269      1.0  0.69788  0.93451  0.34880  1.0000
  C   C270      1.0  0.71584  0.96961  0.34902  1.0000
  H   H197      1.0  0.70296  0.89202  0.34867  1.0000
  H   H198      1.0  0.70176  0.98066  0.35036  1.0000
  C   C271      1.0  0.60212  0.75115  0.35071  1.0000
  N   N43       1.0  0.64859  0.75315  0.42534  1.0000
  C   C272      1.0  0.61861  0.75136  0.43143  1.0000
  O   O43       1.0  0.60945  0.75755  0.51370  1.0000
  C   C273      1.0  0.58755  0.72775  0.56195  1.0000
  H   H199      1.0  0.58152  0.73477  0.62646  1.0000
  H   H200      1.0  0.59930  0.71295  0.57580  1.0000
  H   H201      1.0  0.56444  0.71277  0.52496  1.0000
  C   C274      1.0  0.76612  0.85430  0.35025  1.0000
  N   N44       1.0  0.76414  0.89886  0.42470  1.0000
  C   C275      1.0  0.76592  0.87067  0.43083  1.0000
  O   O44       1.0  0.75967  0.85534  0.51313  1.0000
  C   C276      1.0  0.78943  0.86325  0.56164  1.0000
  H   H202      1.0  0.78235  0.85021  0.62615  1.0000
  H   H203      1.0  0.80421  0.88980  0.57547  1.0000
  H   H204      1.0  0.80445  0.85513  0.52483  1.0000
  C   C277      1.0  0.66294  0.91521  0.35013  1.0000
  N   N45       1.0  0.61858  0.86873  0.42535  1.0000
  C   C278      1.0  0.64677  0.89873  0.43103  1.0000
  O   O45       1.0  0.66223  0.90795  0.51314  1.0000
  C   C279      1.0  0.65424  0.92973  0.56170  1.0000
  H   H205      1.0  0.66739  0.93581  0.62606  1.0000
  H   H206      1.0  0.62771  0.91785  0.57586  1.0000
  H   H207      1.0  0.66219  0.95281  0.52478  1.0000
  C   C280      1.0  0.91866  0.76262  0.34965  1.0000
  N   N46       1.0  0.87222  0.76061  0.42478  1.0000
  C   C281      1.0  0.90221  0.76239  0.43052  1.0000
  O   O46       1.0  0.91142  0.75619  0.51268  1.0000
  C   C282      1.0  0.93322  0.78597  0.56114  1.0000
  H   H208      1.0  0.93930  0.77893  0.62554  1.0000
  H   H209      1.0  0.92136  0.80065  0.57521  1.0000
  H   H210      1.0  0.95631  0.80108  0.52419  1.0000
  C   C283      1.0  0.75460  0.65946  0.35046  1.0000
  N   N47       1.0  0.75653  0.61508  0.42557  1.0000
  C   C284      1.0  0.75467  0.64324  0.43139  1.0000
  O   O47       1.0  0.76079  0.65864  0.51355  1.0000
  C   C285      1.0  0.73095  0.65069  0.56167  1.0000
  H   H211      1.0  0.73792  0.66379  0.62610  1.0000
  H   H212      1.0  0.71621  0.62415  0.57565  1.0000
  H   H213      1.0  0.71593  0.65873  0.52450  1.0000
  C   C286      1.0  0.85787  0.59867  0.35055  1.0000
  N   N48       1.0  0.90239  0.64516  0.42499  1.0000
  C   C287      1.0  0.87418  0.61518  0.43120  1.0000
  O   O48       1.0  0.85888  0.60608  0.51352  1.0000
  C   C288      1.0  0.86675  0.58416  0.56179  1.0000
  H   H214      1.0  0.85374  0.57818  0.62634  1.0000
  H   H215      1.0  0.89330  0.59588  0.57555  1.0000
  H   H216      1.0  0.85858  0.56103  0.52485  1.0000
