data_image0
_chemical_formula_structural       C3HCH3CHC3HCH3CHC3HCH3CHCHC3HCH3CHC3H3CHC6H3N3C6H3N3H2C3HCH3CHC2H2C4H2CHC3H3CHC3H2CHCHCH4C4HCH3CHC3HCH3CHC3HCH3CHC3HCH3CHC3HCH3CHC3H3CHC3HCH3CHCHC3HCH3CHC3HCH3CHC3HCH3CHC3HCH3CHC3HCH3CHC3HCH3CHC6H3N3C6H3N3C6H2N3C6H3N3C6H3N3C6H3N3C6H2N3C6H3N3C6H3N3C6H3N3C3HCH3CHC2H2CHC3HCH3CHC3HCH3CHC3HCH3CH3C3HCH3CHCHC3HCH3CHCH2CHC3H3CHC5HCH3CHC3HCH3CHC3HCH3CHC3HCH3CHC3HCH3CH
_chemical_formula_sum              "C252 H216 N36"
_cell_length_a       57.6284
_cell_length_b       57.6284
_cell_length_c       14.7396
_cell_angle_alpha    90
_cell_angle_beta     90
_cell_angle_gamma    120

_space_group_name_H-M_alt    "P 1"
_space_group_IT_number       1

loop_
  _space_group_symop_operation_xyz
  'x, y, z'

loop_
  _atom_site_type_symbol
  _atom_site_label
  _atom_site_symmetry_multiplicity
  _atom_site_fract_x
  _atom_site_fract_y
  _atom_site_fract_z
  _atom_site_occupancy
  C   C1        1.0  0.18634  0.36689  0.35982  1.0000
  C   C2        1.0  0.19939  0.38217  0.28092  1.0000
  C   C3        1.0  0.21335  0.41061  0.28568  1.0000
  H   H1        1.0  0.22141  0.42136  0.22729  1.0000
  C   C4        1.0  0.19809  0.36992  0.19074  1.0000
  H   H2        1.0  0.18747  0.34809  0.19220  1.0000
  H   H3        1.0  0.21836  0.37666  0.16629  1.0000
  H   H4        1.0  0.18793  0.37613  0.14223  1.0000
  C   C5        1.0  0.16702  0.33966  0.35653  1.0000
  H   H5        1.0  0.14816  0.33542  0.34980  1.0000
  C   C6        1.0  0.19823  0.82746  0.35906  1.0000
  C   C7        1.0  0.20052  0.81432  0.28052  1.0000
  C   C8        1.0  0.21500  0.80038  0.28593  1.0000
  H   H6        1.0  0.21775  0.79225  0.22779  1.0000
  C   C9        1.0  0.18959  0.81549  0.19013  1.0000
  H   H7        1.0  0.17833  0.82606  0.19118  1.0000
  H   H8        1.0  0.17610  0.79518  0.16589  1.0000
  H   H9        1.0  0.20598  0.82562  0.14167  1.0000
  C   C10       1.0  0.19028  0.84674  0.35502  1.0000
  H   H10       1.0  0.20481  0.86552  0.34559  1.0000
  C   C11       1.0  0.21605  0.18039  0.34658  1.0000
  C   C12       1.0  0.20312  0.18548  0.27304  1.0000
  C   C13       1.0  0.19405  0.20414  0.28436  1.0000
  H   H11       1.0  0.18534  0.20805  0.23025  1.0000
  C   C14       1.0  0.19892  0.17266  0.18213  1.0000
  H   H12       1.0  0.20740  0.15954  0.17611  1.0000
  H   H13       1.0  0.20829  0.18810  0.13002  1.0000
  H   H14       1.0  0.17749  0.16077  0.16801  1.0000
  C   C15       1.0  0.22303  0.16032  0.34356  1.0000
  H   H15       1.0  0.20863  0.14194  0.32788  1.0000
  C   C16       1.0  0.02778  0.81976  0.28440  1.0000
  H   H16       1.0  0.04041  0.82847  0.23030  1.0000
  C   C17       1.0  0.18758  0.97484  0.34663  1.0000
  C   C18       1.0  0.19267  0.99287  0.27311  1.0000
  C   C19       1.0  0.21134  0.02060  0.28443  1.0000
  H   H17       1.0  0.21525  0.03323  0.23032  1.0000
  C   C20       1.0  0.17985  0.98425  0.18219  1.0000
  H   H18       1.0  0.16673  0.96266  0.17616  1.0000
  H   H19       1.0  0.19529  0.99032  0.13008  1.0000
  H   H20       1.0  0.16796  0.99379  0.16807  1.0000
  C   C21       1.0  0.16751  0.94780  0.34360  1.0000
  H   H21       1.0  0.14912  0.94382  0.32792  1.0000
  C   C22       1.0  0.03895  0.20881  0.34658  1.0000
  C   C23       1.0  0.02093  0.19590  0.27300  1.0000
  C   C24       1.0  0.02956  0.19171  0.18207  1.0000
  H   H22       1.0  0.05115  0.20018  0.17606  1.0000
  H   H23       1.0  0.02350  0.20109  0.12998  1.0000
  H   H24       1.0  0.02001  0.17028  0.16792  1.0000
  C   C25       1.0  0.06600  0.21580  0.34349  1.0000
  H   H25       1.0  0.06999  0.20141  0.32770  1.0000
  C   C26       1.0  0.11258  0.25100  0.35728  1.0000
  C   C27       1.0  0.12804  0.27933  0.35968  1.0000
  C   C28       1.0  0.15652  0.29330  0.35985  1.0000
  C   C29       1.0  0.16939  0.27782  0.35896  1.0000
  C   C30       1.0  0.15484  0.24936  0.35754  1.0000
  C   C31       1.0  0.12649  0.23646  0.35616  1.0000
  H   H26       1.0  0.18987  0.28759  0.35886  1.0000
  H   H27       1.0  0.11577  0.21598  0.35564  1.0000
  H   H28       1.0  0.11819  0.28994  0.36117  1.0000
  N   N1        1.0  0.08565  0.23977  0.35755  1.0000
  N   N2        1.0  0.17216  0.32029  0.36154  1.0000
  N   N3        1.0  0.16608  0.23366  0.35670  1.0000
  C   C32       1.0  0.15612  0.90122  0.35737  1.0000
  C   C33       1.0  0.16898  0.88575  0.35992  1.0000
  C   C34       1.0  0.15448  0.85727  0.36012  1.0000
  C   C35       1.0  0.12612  0.84440  0.35926  1.0000
  C   C36       1.0  0.11221  0.85896  0.35765  1.0000
  C   C37       1.0  0.12768  0.88731  0.35616  1.0000
  H   H29       1.0  0.11541  0.82392  0.35928  1.0000
  H   H30       1.0  0.11792  0.89803  0.35552  1.0000
  H   H31       1.0  0.18945  0.89559  0.36164  1.0000
  N   N4        1.0  0.17183  0.92815  0.35760  1.0000
  N   N5        1.0  0.16583  0.84164  0.36215  1.0000
  N   N6        1.0  0.08528  0.84773  0.35678  1.0000
  H   H32       1.0  0.22321  0.11073  0.35549  1.0000
  H   H33       1.0  0.21859  0.71468  0.36398  1.0000
  C   C38       1.0  0.21475  0.42463  0.36627  1.0000
  C   C39       1.0  0.20239  0.40936  0.44578  1.0000
  C   C40       1.0  0.18848  0.38094  0.44102  1.0000
  H   H34       1.0  0.17849  0.37022  0.49760  1.0000
  C   C41       1.0  0.20225  0.42161  0.53461  1.0000
  H   H35       1.0  0.21397  0.44344  0.53427  1.0000
  H   H36       1.0  0.21063  0.41454  0.58696  1.0000
  H   H37       1.0  0.18170  0.41575  0.55324  1.0000
  C   C42       1.0  0.22338  0.45199  0.36042  1.0000
  H   H38       1.0  0.20927  0.45704  0.35702  1.0000
  C   C43       1.0  0.22456  0.81152  0.44599  1.0000
  C   C44       1.0  0.21006  0.82542  0.44061  1.0000
  H   H39       1.0  0.20926  0.83547  0.49693  1.0000
  H   H40       1.0  0.22133  0.80341  0.58728  1.0000
  C   C45       1.0  0.19711  0.21799  0.36676  1.0000
  C   C46       1.0  0.21005  0.21291  0.44028  1.0000
  C   C47       1.0  0.21911  0.19425  0.42897  1.0000
  C   C48       1.0  0.21427  0.22575  0.53117  1.0000
  H   H41       1.0  0.20581  0.23888  0.53720  1.0000
  H   H42       1.0  0.20491  0.21032  0.58332  1.0000
  C   C49       1.0  0.19010  0.23803  0.36988  1.0000
  H   H43       1.0  0.20453  0.25644  0.38526  1.0000
  C   C50       1.0  0.03857  0.81671  0.36681  1.0000
  C   C51       1.0  0.02054  0.80377  0.44033  1.0000
  C   C52       1.0  0.02916  0.79955  0.53123  1.0000
  H   H44       1.0  0.05075  0.80801  0.53727  1.0000
  H   H45       1.0  0.01961  0.77811  0.54528  1.0000
  H   H46       1.0  0.02309  0.80891  0.58337  1.0000
  C   C53       1.0  0.06562  0.82371  0.36993  1.0000
  H   H47       1.0  0.06960  0.80928  0.38538  1.0000
  C   C54       1.0  0.22519  0.03139  0.36683  1.0000
  C   C55       1.0  0.22010  0.01336  0.44035  1.0000
  C   C56       1.0  0.20144  0.98564  0.42903  1.0000
  H   H48       1.0  0.19751  0.97302  0.48315  1.0000
  H   H49       1.0  0.21752  0.01591  0.58339  1.0000
  C   C57       1.0  0.02816  0.21190  0.42893  1.0000
  H   H50       1.0  0.04079  0.22061  0.48304  1.0000
  C   C58       1.0  0.21582  0.60842  0.37498  1.0000
  H   H51       1.0  0.21583  0.57173  0.37943  1.0000
  C   C59       1.0  0.18999  0.59602  0.42593  1.0000
  H   H52       1.0  0.18300  0.60975  0.44395  1.0000
  H   H53       1.0  0.19213  0.58743  0.48928  1.0000
  H   H54       1.0  0.17437  0.57998  0.38525  1.0000
  H   H55       1.0  0.20324  0.64926  0.38263  1.0000
  C   C60       1.0  0.22217  0.65501  0.36166  1.0000
  C   C61       1.0  0.64691  0.81561  0.35996  1.0000
  C   C62       1.0  0.63158  0.81343  0.28126  1.0000
  C   C63       1.0  0.60315  0.79892  0.28617  1.0000
  H   H56       1.0  0.59235  0.79629  0.22793  1.0000
  C   C64       1.0  0.64380  0.82449  0.19113  1.0000
  H   H57       1.0  0.66563  0.83572  0.19251  1.0000
  H   H58       1.0  0.63703  0.83803  0.16702  1.0000
  H   H59       1.0  0.63758  0.80817  0.14239  1.0000
  C   C65       1.0  0.67413  0.82350  0.35654  1.0000
  H   H60       1.0  0.67836  0.80888  0.34966  1.0000
  C   C66       1.0  0.83459  0.63972  0.35968  1.0000
  C   C67       1.0  0.82144  0.62434  0.28108  1.0000
  C   C68       1.0  0.80752  0.59591  0.28617  1.0000
  H   H61       1.0  0.79934  0.58508  0.22800  1.0000
  C   C69       1.0  0.82255  0.63651  0.19089  1.0000
  H   H62       1.0  0.83313  0.65834  0.19215  1.0000
  H   H63       1.0  0.80223  0.62971  0.16681  1.0000
  H   H64       1.0  0.83266  0.63028  0.14218  1.0000
  C   C70       1.0  0.85392  0.66694  0.35604  1.0000
  H   H65       1.0  0.87275  0.67117  0.34833  1.0000
  C   C71       1.0  0.37409  0.19105  0.35892  1.0000
  C   C72       1.0  0.38953  0.19335  0.28043  1.0000
  C   C73       1.0  0.41796  0.20784  0.28591  1.0000
  H   H66       1.0  0.42884  0.21059  0.22781  1.0000
  C   C74       1.0  0.37746  0.18243  0.19001  1.0000
  H   H67       1.0  0.35563  0.17116  0.19102  1.0000
  H   H68       1.0  0.38430  0.16895  0.16579  1.0000
  H   H69       1.0  0.38373  0.19882  0.14156  1.0000
  C   C75       1.0  0.34686  0.18310  0.35480  1.0000
  H   H70       1.0  0.34261  0.19761  0.34506  1.0000
  C   C76       1.0  0.82279  0.17920  0.35973  1.0000
  C   C77       1.0  0.82059  0.19236  0.28112  1.0000
  C   C78       1.0  0.80606  0.20627  0.28619  1.0000
  H   H71       1.0  0.80342  0.21445  0.22802  1.0000
  C   C79       1.0  0.83163  0.19124  0.19093  1.0000
  H   H72       1.0  0.84288  0.18066  0.19221  1.0000
  H   H73       1.0  0.84516  0.21156  0.16686  1.0000
  H   H74       1.0  0.81530  0.18113  0.14221  1.0000
  C   C80       1.0  0.83069  0.15987  0.35611  1.0000
  H   H75       1.0  0.81609  0.14104  0.34852  1.0000
  C   C81       1.0  0.83345  0.03178  0.34653  1.0000
  C   C82       1.0  0.82834  0.01376  0.27296  1.0000
  C   C83       1.0  0.80968  0.98604  0.28428  1.0000
  H   H76       1.0  0.80575  0.97341  0.23017  1.0000
  C   C84       1.0  0.84116  0.02238  0.18203  1.0000
  H   H77       1.0  0.85428  0.04398  0.17600  1.0000
  H   H78       1.0  0.82571  0.01631  0.12994  1.0000
  H   H79       1.0  0.85304  0.01284  0.16789  1.0000
  C   C85       1.0  0.85350  0.05883  0.34343  1.0000
  H   H80       1.0  0.87189  0.06282  0.32760  1.0000
  C   C86       1.0  0.98203  0.79777  0.34660  1.0000
  C   C87       1.0  0.00006  0.81070  0.27307  1.0000
  C   C88       1.0  0.99143  0.81490  0.18215  1.0000
  H   H81       1.0  0.96984  0.80642  0.17613  1.0000
  H   H82       1.0  0.99750  0.80553  0.13005  1.0000
  H   H83       1.0  0.00097  0.83633  0.16803  1.0000
  C   C89       1.0  0.95498  0.79079  0.34357  1.0000
  H   H84       1.0  0.95100  0.80520  0.32790  1.0000
  C   C90       1.0  0.80499  0.82627  0.34655  1.0000
  C   C91       1.0  0.81790  0.82116  0.27298  1.0000
  C   C92       1.0  0.82696  0.80249  0.28431  1.0000
  H   H85       1.0  0.83566  0.79857  0.23019  1.0000
  C   C93       1.0  0.82209  0.83397  0.18205  1.0000
  H   H86       1.0  0.81362  0.84709  0.17602  1.0000
  H   H87       1.0  0.81271  0.81852  0.12997  1.0000
  H   H88       1.0  0.84352  0.84585  0.16790  1.0000
  C   C94       1.0  0.79800  0.84633  0.34346  1.0000
  H   H89       1.0  0.81238  0.86471  0.32762  1.0000
  C   C95       1.0  0.99322  0.18685  0.28431  1.0000
  H   H90       1.0  0.98059  0.17815  0.23019  1.0000
  C   C96       1.0  0.25129  0.60002  0.31407  1.0000
  C   C97       1.0  0.26583  0.62731  0.28494  1.0000
  C   C98       1.0  0.25539  0.64443  0.30316  1.0000
  H   H91       1.0  0.26606  0.66375  0.28045  1.0000
  C   C99       1.0  0.29198  0.63896  0.23572  1.0000
  H   H92       1.0  0.28954  0.62757  0.17380  1.0000
  H   H93       1.0  0.30697  0.63821  0.27890  1.0000
  H   H94       1.0  0.29991  0.65984  0.21589  1.0000
  C   C100      1.0  0.26203  0.58269  0.30453  1.0000
  H   H95       1.0  0.28042  0.59081  0.27522  1.0000
  C   C101      1.0  0.41378  0.64744  0.31415  1.0000
  C   C102      1.0  0.38649  0.63469  0.28502  1.0000
  C   C103      1.0  0.36936  0.60714  0.30325  1.0000
  H   H96       1.0  0.35005  0.59849  0.28051  1.0000
  C   C104      1.0  0.37484  0.64920  0.23582  1.0000
  H   H97       1.0  0.38623  0.65815  0.17390  1.0000
  H   H98       1.0  0.37559  0.66494  0.27902  1.0000
  H   H99       1.0  0.35395  0.63625  0.21597  1.0000
  C   C105      1.0  0.43111  0.67552  0.30462  1.0000
  H   H100      1.0  0.42298  0.68579  0.27538  1.0000
  C   C106      1.0  0.36637  0.76247  0.31418  1.0000
  C   C107      1.0  0.37912  0.74792  0.28518  1.0000
  C   C108      1.0  0.40668  0.75836  0.30339  1.0000
  H   H101      1.0  0.41532  0.74769  0.28077  1.0000
  C   C109      1.0  0.36461  0.72174  0.23612  1.0000
  H   H102      1.0  0.35565  0.72415  0.17416  1.0000
  H   H103      1.0  0.34887  0.70677  0.27938  1.0000
  H   H104      1.0  0.37756  0.71380  0.21637  1.0000
  C   C110      1.0  0.33829  0.75172  0.30465  1.0000
  H   H105      1.0  0.32802  0.73332  0.27545  1.0000
  C   C111      1.0  0.76957  0.40655  0.31434  1.0000
  C   C112      1.0  0.75501  0.37923  0.28546  1.0000
  C   C113      1.0  0.76547  0.36213  0.30360  1.0000
  H   H106      1.0  0.75479  0.34281  0.28102  1.0000
  C   C114      1.0  0.72879  0.36753  0.23661  1.0000
  H   H107      1.0  0.73116  0.37888  0.17462  1.0000
  H   H108      1.0  0.71385  0.36831  0.27999  1.0000
  H   H109      1.0  0.72084  0.34664  0.21692  1.0000
  C   C115      1.0  0.75881  0.42386  0.30486  1.0000
  H   H110      1.0  0.74038  0.41572  0.27581  1.0000
  C   C116      1.0  0.60721  0.35919  0.31425  1.0000
  C   C117      1.0  0.63452  0.37195  0.28530  1.0000
  C   C118      1.0  0.65162  0.39952  0.30349  1.0000
  H   H111      1.0  0.67095  0.40817  0.28088  1.0000
  C   C119      1.0  0.64621  0.35745  0.23632  1.0000
  H   H112      1.0  0.63486  0.34849  0.17434  1.0000
  H   H113      1.0  0.64545  0.34172  0.27961  1.0000
  H   H114      1.0  0.66711  0.37041  0.21661  1.0000
  C   C120      1.0  0.58990  0.33111  0.30472  1.0000
  H   H115      1.0  0.59804  0.32085  0.27556  1.0000
  C   C121      1.0  0.65461  0.24416  0.31417  1.0000
  C   C122      1.0  0.64186  0.25870  0.28509  1.0000
  C   C123      1.0  0.61430  0.24826  0.30326  1.0000
  H   H116      1.0  0.60565  0.25892  0.28055  1.0000
  C   C124      1.0  0.65637  0.28488  0.23600  1.0000
  H   H117      1.0  0.66534  0.28246  0.17408  1.0000
  H   H118      1.0  0.67210  0.29986  0.27927  1.0000
  H   H119      1.0  0.64342  0.29281  0.21619  1.0000
  C   C125      1.0  0.68269  0.25492  0.30468  1.0000
  H   H120      1.0  0.69296  0.27332  0.27551  1.0000
  C   C126      1.0  0.76280  0.85770  0.35723  1.0000
  C   C127      1.0  0.73447  0.84484  0.35968  1.0000
  C   C128      1.0  0.72049  0.85934  0.35988  1.0000
  C   C129      1.0  0.73598  0.88770  0.35897  1.0000
  C   C130      1.0  0.76444  0.90161  0.35751  1.0000
  C   C131      1.0  0.77733  0.88615  0.35614  1.0000
  H   H121      1.0  0.72621  0.89841  0.35888  1.0000
  H   H122      1.0  0.79782  0.89591  0.35558  1.0000
  H   H123      1.0  0.72385  0.82437  0.36119  1.0000
  N   N7        1.0  0.77402  0.84200  0.35753  1.0000
  N   N8        1.0  0.69351  0.84800  0.36164  1.0000
  N   N9        1.0  0.78014  0.92854  0.35667  1.0000
  C   C132      1.0  0.90840  0.75560  0.35725  1.0000
  C   C133      1.0  0.89293  0.72727  0.35973  1.0000
  C   C134      1.0  0.86446  0.71330  0.35994  1.0000
  C   C135      1.0  0.85159  0.72879  0.35905  1.0000
  C   C136      1.0  0.86615  0.75725  0.35755  1.0000
  C   C137      1.0  0.89450  0.77014  0.35614  1.0000
  H   H124      1.0  0.83110  0.71902  0.35900  1.0000
  H   H125      1.0  0.90522  0.79062  0.35554  1.0000
  H   H126      1.0  0.90277  0.71664  0.36130  1.0000
  N   N10       1.0  0.93533  0.76682  0.35752  1.0000
  N   N11       1.0  0.84881  0.68632  0.36179  1.0000
  N   N12       1.0  0.85492  0.77296  0.35671  1.0000
  C   C138      1.0  0.25823  0.14894  0.35734  1.0000
  C   C139      1.0  0.28656  0.16180  0.35990  1.0000
  C   C140      1.0  0.30053  0.14730  0.36011  1.0000
  C   C141      1.0  0.28504  0.11894  0.35927  1.0000
  C   C142      1.0  0.25658  0.10503  0.35765  1.0000
  C   C143      1.0  0.24369  0.12050  0.35613  1.0000
  H   H127      1.0  0.29481  0.10823  0.35932  1.0000
  H   H128      1.0  0.29718  0.18227  0.36163  1.0000
  N   N13       1.0  0.24700  0.16465  0.35756  1.0000
  N   N14       1.0  0.32751  0.15865  0.36219  1.0000
  N   N15       1.0  0.24087  0.07810  0.35680  1.0000
  C   C144      1.0  0.86488  0.10541  0.35723  1.0000
  C   C145      1.0  0.85202  0.12087  0.35970  1.0000
  C   C146      1.0  0.86652  0.14935  0.35991  1.0000
  C   C147      1.0  0.89488  0.16222  0.35902  1.0000
  C   C148      1.0  0.90878  0.14766  0.35753  1.0000
  C   C149      1.0  0.89332  0.11931  0.35612  1.0000
  H   H129      1.0  0.90559  0.18270  0.35898  1.0000
  H   H130      1.0  0.90309  0.10859  0.35554  1.0000
  H   H131      1.0  0.83155  0.11102  0.36127  1.0000
  N   N16       1.0  0.84917  0.07847  0.35751  1.0000
  N   N17       1.0  0.85518  0.16499  0.36176  1.0000
  N   N18       1.0  0.93572  0.15890  0.35669  1.0000
  C   C150      1.0  0.26360  0.54160  0.33640  1.0000
  C   C151      1.0  0.24857  0.51335  0.34719  1.0000
  C   C152      1.0  0.26112  0.49747  0.35504  1.0000
  C   C153      1.0  0.28951  0.51086  0.35690  1.0000
  C   C154      1.0  0.30499  0.53895  0.34822  1.0000
  C   C155      1.0  0.29189  0.55375  0.33664  1.0000
  H   H132      1.0  0.29913  0.50009  0.36439  1.0000
  H   H133      1.0  0.30351  0.57412  0.33573  1.0000
  H   H134      1.0  0.22814  0.50423  0.34685  1.0000
  N   N19       1.0  0.25110  0.55651  0.33020  1.0000
  N   N20       1.0  0.24825  0.47050  0.36012  1.0000
  N   N21       1.0  0.33204  0.55312  0.35344  1.0000
  C   C156      1.0  0.47220  0.71816  0.33645  1.0000
  C   C157      1.0  0.50046  0.73138  0.34713  1.0000
  C   C158      1.0  0.51635  0.75980  0.35489  1.0000
  C   C159      1.0  0.50298  0.77482  0.35675  1.0000
  C   C160      1.0  0.47488  0.76222  0.34824  1.0000
  C   C161      1.0  0.46006  0.73430  0.33688  1.0000
  H   H135      1.0  0.51376  0.79521  0.36413  1.0000
  H   H136      1.0  0.43969  0.72556  0.33589  1.0000
  H   H137      1.0  0.50957  0.72006  0.34663  1.0000
  N   N22       1.0  0.45729  0.69076  0.33023  1.0000
  N   N23       1.0  0.54332  0.77388  0.35983  1.0000
  N   N24       1.0  0.46074  0.77512  0.35350  1.0000
  C   C162      1.0  0.29564  0.75018  0.33635  1.0000
  C   C163      1.0  0.28242  0.76522  0.34699  1.0000
  C   C164      1.0  0.25400  0.75268  0.35476  1.0000
  C   C165      1.0  0.23898  0.72429  0.35660  1.0000
  C   C166      1.0  0.25159  0.70880  0.34811  1.0000
  C   C167      1.0  0.27950  0.72189  0.33666  1.0000
  H   H138      1.0  0.28823  0.71026  0.33586  1.0000
  H   H139      1.0  0.29374  0.78565  0.34649  1.0000
  N   N25       1.0  0.32305  0.76267  0.33018  1.0000
  N   N26       1.0  0.23991  0.76557  0.35956  1.0000
  N   N27       1.0  0.23868  0.68175  0.35337  1.0000
  C   C168      1.0  0.75730  0.46499  0.33647  1.0000
  C   C169      1.0  0.77236  0.49325  0.34704  1.0000
  C   C170      1.0  0.75985  0.50917  0.35472  1.0000
  C   C171      1.0  0.73146  0.49582  0.35660  1.0000
  C   C172      1.0  0.71594  0.46772  0.34825  1.0000
  C   C173      1.0  0.72901  0.45288  0.33697  1.0000
  H   H140      1.0  0.72186  0.50662  0.36392  1.0000
  H   H141      1.0  0.71737  0.43251  0.33607  1.0000
  H   H142      1.0  0.79279  0.50236  0.34641  1.0000
  N   N28       1.0  0.76978  0.45007  0.33027  1.0000
  N   N29       1.0  0.77276  0.53615  0.35955  1.0000
  N   N30       1.0  0.68889  0.45360  0.35350  1.0000
  C   C174      1.0  0.54878  0.28846  0.33634  1.0000
  C   C175      1.0  0.52052  0.27524  0.34692  1.0000
  C   C176      1.0  0.50463  0.24682  0.35464  1.0000
  C   C177      1.0  0.51800  0.23179  0.35646  1.0000
  C   C178      1.0  0.54610  0.24440  0.34803  1.0000
  C   C179      1.0  0.56092  0.27231  0.33666  1.0000
  H   H143      1.0  0.50722  0.21140  0.36379  1.0000
  H   H144      1.0  0.58129  0.28105  0.33590  1.0000
  H   H145      1.0  0.51140  0.28656  0.34642  1.0000
  N   N31       1.0  0.56370  0.31587  0.33019  1.0000
  N   N32       1.0  0.47765  0.23273  0.35941  1.0000
  N   N33       1.0  0.56024  0.23149  0.35327  1.0000
  C   C180      1.0  0.72533  0.25645  0.33645  1.0000
  C   C181      1.0  0.73854  0.24140  0.34706  1.0000
  C   C182      1.0  0.76697  0.25393  0.35473  1.0000
  C   C183      1.0  0.78200  0.28232  0.35658  1.0000
  C   C184      1.0  0.76940  0.29782  0.34818  1.0000
  C   C185      1.0  0.74148  0.28473  0.33692  1.0000
  H   H146      1.0  0.80239  0.29193  0.36389  1.0000
  H   H147      1.0  0.73274  0.29636  0.33600  1.0000
  H   H148      1.0  0.72723  0.22097  0.34645  1.0000
  N   N34       1.0  0.69793  0.24396  0.33022  1.0000
  N   N35       1.0  0.78105  0.24103  0.35958  1.0000
  N   N36       1.0  0.78232  0.32487  0.35345  1.0000
  C   C186      1.0  0.58918  0.78619  0.36670  1.0000
  C   C187      1.0  0.60450  0.78906  0.44608  1.0000
  C   C188      1.0  0.63290  0.80359  0.44116  1.0000
  H   H149      1.0  0.64365  0.80426  0.49759  1.0000
  C   C189      1.0  0.59230  0.77659  0.53491  1.0000
  H   H150      1.0  0.57048  0.76648  0.53476  1.0000
  H   H151      1.0  0.59940  0.79201  0.58739  1.0000
  H   H152      1.0  0.59819  0.76189  0.55321  1.0000
  C   C190      1.0  0.56181  0.76748  0.36118  1.0000
  H   H153      1.0  0.55670  0.74829  0.35908  1.0000
  C   C191      1.0  0.22756  0.79908  0.36682  1.0000
  C   C192      1.0  0.23685  0.81173  0.53513  1.0000
  H   H154      1.0  0.24693  0.79999  0.53531  1.0000
  H   H155      1.0  0.25153  0.83230  0.55364  1.0000
  C   C193      1.0  0.24630  0.79044  0.36168  1.0000
  H   H156      1.0  0.26550  0.80454  0.36056  1.0000
  C   C194      1.0  0.80632  0.58200  0.36680  1.0000
  C   C195      1.0  0.81878  0.59736  0.44608  1.0000
  C   C196      1.0  0.83265  0.62577  0.44097  1.0000
  H   H157      1.0  0.84274  0.63655  0.49733  1.0000
  C   C197      1.0  0.81908  0.58522  0.53501  1.0000
  H   H158      1.0  0.80736  0.56340  0.53502  1.0000
  H   H159      1.0  0.81076  0.59235  0.58742  1.0000
  H   H160      1.0  0.83966  0.59112  0.55329  1.0000
  C   C198      1.0  0.79764  0.55461  0.36150  1.0000
  H   H161      1.0  0.81172  0.54948  0.36017  1.0000
  C   C199      1.0  0.43180  0.22039  0.36683  1.0000
  C   C200      1.0  0.41634  0.21737  0.44597  1.0000
  C   C201      1.0  0.38794  0.20287  0.44052  1.0000
  H   H162      1.0  0.37708  0.20206  0.49681  1.0000
  C   C202      1.0  0.42840  0.22965  0.53514  1.0000
  H   H163      1.0  0.45022  0.23972  0.53539  1.0000
  H   H164      1.0  0.42119  0.21412  0.58727  1.0000
  H   H165      1.0  0.42251  0.24433  0.55366  1.0000
  C   C203      1.0  0.45918  0.23912  0.36179  1.0000
  H   H166      1.0  0.46429  0.25833  0.36101  1.0000
  C   C204      1.0  0.79335  0.20748  0.36681  1.0000
  C   C205      1.0  0.79625  0.19501  0.44610  1.0000
  C   C206      1.0  0.81078  0.18115  0.44101  1.0000
  H   H167      1.0  0.81148  0.17106  0.49737  1.0000
  C   C207      1.0  0.78380  0.19472  0.53501  1.0000
  H   H168      1.0  0.77370  0.20644  0.53501  1.0000
  H   H169      1.0  0.79925  0.20303  0.58744  1.0000
  H   H170      1.0  0.76912  0.17414  0.55329  1.0000
  C   C208      1.0  0.77464  0.21615  0.36149  1.0000
  H   H171      1.0  0.75544  0.20207  0.36009  1.0000
  H   H172      1.0  0.22781  0.19033  0.48310  1.0000
  H   H173      1.0  0.23571  0.23763  0.54523  1.0000
  C   C209      1.0  0.79582  0.97524  0.36668  1.0000
  C   C210      1.0  0.80090  0.99327  0.44019  1.0000
  C   C211      1.0  0.81957  0.02099  0.42889  1.0000
  H   H174      1.0  0.82348  0.03362  0.48300  1.0000
  C   C212      1.0  0.78803  0.98466  0.53105  1.0000
  H   H175      1.0  0.77489  0.96307  0.53705  1.0000
  H   H176      1.0  0.77616  0.99422  0.54505  1.0000
  H   H177      1.0  0.80344  0.99072  0.58324  1.0000
  C   C213      1.0  0.77577  0.94820  0.36975  1.0000
  H   H178      1.0  0.75736  0.94422  0.38507  1.0000
  C   C214      1.0  0.99283  0.79471  0.42900  1.0000
  H   H179      1.0  0.98020  0.78601  0.48313  1.0000
  C   C215      1.0  0.82390  0.78864  0.36672  1.0000
  C   C216      1.0  0.81094  0.79372  0.44023  1.0000
  C   C217      1.0  0.80190  0.81239  0.42892  1.0000
  H   H180      1.0  0.79319  0.81631  0.48302  1.0000
  C   C218      1.0  0.80670  0.78086  0.53108  1.0000
  H   H181      1.0  0.81515  0.76772  0.53710  1.0000
  H   H182      1.0  0.78526  0.76898  0.54509  1.0000
  H   H183      1.0  0.81605  0.79627  0.58328  1.0000
  C   C219      1.0  0.83089  0.76859  0.36978  1.0000
  H   H184      1.0  0.81645  0.75018  0.38510  1.0000
  C   C220      1.0  0.23294  0.02198  0.53124  1.0000
  H   H185      1.0  0.24608  0.04357  0.53728  1.0000
  H   H186      1.0  0.24482  0.01242  0.54529  1.0000
  C   C221      1.0  0.24524  0.05844  0.36996  1.0000
  H   H187      1.0  0.26364  0.06241  0.38533  1.0000
  C   C222      1.0  0.98242  0.18991  0.36671  1.0000
  C   C223      1.0  0.00045  0.20286  0.44022  1.0000
  C   C224      1.0  0.99183  0.20711  0.53107  1.0000
  H   H188      1.0  0.97024  0.19867  0.53708  1.0000
  H   H189      1.0  0.00140  0.22855  0.54507  1.0000
  H   H190      1.0  0.99788  0.19775  0.58327  1.0000
  C   C225      1.0  0.95538  0.18292  0.36976  1.0000
  H   H191      1.0  0.95141  0.19736  0.38508  1.0000
  C   C226      1.0  0.23069  0.63594  0.34810  1.0000
  C   C227      1.0  0.22639  0.59121  0.35759  1.0000
  C   C228      1.0  0.37785  0.59092  0.34816  1.0000
  C   C229      1.0  0.40538  0.60356  0.37497  1.0000
  C   C230      1.0  0.42258  0.63134  0.35762  1.0000
  H   H192      1.0  0.44207  0.64026  0.37941  1.0000
  C   C231      1.0  0.41779  0.59013  0.42584  1.0000
  H   H193      1.0  0.40406  0.56939  0.44380  1.0000
  H   H194      1.0  0.42637  0.60084  0.48922  1.0000
  H   H195      1.0  0.43384  0.59057  0.38514  1.0000
  C   C232      1.0  0.35878  0.56332  0.36173  1.0000
  H   H196      1.0  0.36452  0.55014  0.38276  1.0000
  C   C233      1.0  0.42290  0.78309  0.34819  1.0000
  C   C234      1.0  0.41026  0.79798  0.37493  1.0000
  C   C235      1.0  0.38247  0.78740  0.35755  1.0000
  H   H197      1.0  0.37355  0.79796  0.37929  1.0000
  C   C236      1.0  0.42368  0.82384  0.42572  1.0000
  H   H198      1.0  0.44441  0.83083  0.44378  1.0000
  H   H199      1.0  0.41295  0.82173  0.48904  1.0000
  H   H200      1.0  0.42326  0.83943  0.38492  1.0000
  C   C237      1.0  0.45050  0.79163  0.36175  1.0000
  H   H201      1.0  0.46367  0.81058  0.38252  1.0000
  C   C238      1.0  0.79024  0.37067  0.34818  1.0000
  C   C239      1.0  0.80514  0.39821  0.37478  1.0000
  C   C240      1.0  0.79453  0.41540  0.35750  1.0000
  H   H202      1.0  0.80511  0.43489  0.37912  1.0000
  C   C241      1.0  0.83103  0.41067  0.42534  1.0000
  H   H203      1.0  0.83805  0.39695  0.44336  1.0000
  H   H204      1.0  0.82897  0.41932  0.48868  1.0000
  H   H205      1.0  0.84659  0.42667  0.38440  1.0000
  C   C242      1.0  0.79880  0.35162  0.36165  1.0000
  H   H206      1.0  0.81777  0.35742  0.38223  1.0000
  C   C243      1.0  0.64310  0.41573  0.34822  1.0000
  C   C244      1.0  0.61556  0.40308  0.37492  1.0000
  C   C245      1.0  0.59837  0.37529  0.35756  1.0000
  H   H207      1.0  0.57888  0.36636  0.37927  1.0000
  C   C246      1.0  0.60312  0.41650  0.42567  1.0000
  H   H208      1.0  0.61684  0.43722  0.44376  1.0000
  H   H209      1.0  0.59448  0.40576  0.48897  1.0000
  H   H210      1.0  0.58710  0.41607  0.38482  1.0000
  C   C247      1.0  0.66214  0.44334  0.36176  1.0000
  H   H211      1.0  0.65635  0.45651  0.38241  1.0000
  C   C248      1.0  0.59808  0.22353  0.34806  1.0000
  C   C249      1.0  0.61072  0.20864  0.37484  1.0000
  C   C250      1.0  0.63851  0.21923  0.35754  1.0000
  H   H212      1.0  0.64743  0.20867  0.37930  1.0000
  C   C251      1.0  0.59729  0.18279  0.42562  1.0000
  H   H213      1.0  0.57656  0.17578  0.44359  1.0000
  H   H214      1.0  0.60800  0.18490  0.48899  1.0000
  H   H215      1.0  0.59773  0.16720  0.38485  1.0000
  C   C252      1.0  0.57047  0.21499  0.36152  1.0000
  H   H216      1.0  0.55730  0.19604  0.38238  1.0000
