data_image0
_chemical_formula_structural       C4HC6H3C4HC6H3CNCHNHCNCHNHC4HC6H3C4HC6H3CNCHNHCNCHNHC4HC6H3C4HC6H3C4HC6H3C4HC6H3CNCHNHCNCHNHC4HC6H3C4HC6H3CNCHNHCNCHNHC4HC6H3C4HC6H3CNCHNHCNCHNHC4HC6H3C4HC6H3CNCNCNCNCNCNCNCNCNCNCNCNCNCNCNCNCNCNCNCNCNCNCNCNCNCNCNCNCNCNCNCNCNCNCNCNCNCNCNCNCNCNCNCNCNCNCNCNCNCHNHCNCHNHC4HC6H3C4HC6H3CNCHNHCNCHNHC4HC6H3C4HC6H3CNCHNHCNCHNHCNCHNHCNCHNHC4HC6H3C4HC6H3CNCHNHCNCHNHC4HC6H3C4HC6H3CNCHNHCNCHNHC4HC6H3C4HC6H3CNCHNHCNCHNH
_chemical_formula_sum              "C336 H144 N96"
_cell_length_a       65.8685
_cell_length_b       51.651
_cell_length_c       14.9518
_cell_angle_alpha    90
_cell_angle_beta     90
_cell_angle_gamma    90

_space_group_name_H-M_alt    "P 1"
_space_group_IT_number       1

loop_
  _space_group_symop_operation_xyz
  'x, y, z'

loop_
  _atom_site_type_symbol
  _atom_site_label
  _atom_site_symmetry_multiplicity
  _atom_site_fract_x
  _atom_site_fract_y
  _atom_site_fract_z
  _atom_site_occupancy
  C   C1        1.0  0.00206  0.93201  0.32374  1.0000
  C   C2        1.0  0.00171  0.98715  0.32247  1.0000
  C   C3        1.0  0.98332  0.97332  0.30898  1.0000
  C   C4        1.0  0.98376  0.94594  0.31013  1.0000
  H   H1        1.0  0.97048  0.93607  0.30024  1.0000
  C   C5        1.0  0.00163  0.01461  0.32272  1.0000
  C   C6        1.0  0.00165  0.06976  0.32498  1.0000
  C   C7        1.0  0.98346  0.05567  0.31060  1.0000
  C   C8        1.0  0.98317  0.02829  0.30920  1.0000
  C   C9        1.0  0.96502  0.01433  0.29509  1.0000
  C   C10       1.0  0.96509  0.98712  0.29505  1.0000
  H   H2        1.0  0.95159  0.02385  0.28521  1.0000
  H   H3        1.0  0.95171  0.97749  0.28511  1.0000
  H   H4        1.0  0.97011  0.06541  0.30086  1.0000
  C   C11       1.0  0.50250  0.43068  0.32605  1.0000
  C   C12       1.0  0.50287  0.48585  0.32496  1.0000
  C   C13       1.0  0.52128  0.47200  0.31231  1.0000
  C   C14       1.0  0.52082  0.44462  0.31308  1.0000
  H   H5        1.0  0.53414  0.43478  0.30399  1.0000
  C   C15       1.0  0.50297  0.51332  0.32524  1.0000
  C   C16       1.0  0.50300  0.56847  0.32768  1.0000
  C   C17       1.0  0.52124  0.55436  0.31482  1.0000
  C   C18       1.0  0.52150  0.52698  0.31315  1.0000
  C   C19       1.0  0.53967  0.51301  0.30015  1.0000
  C   C20       1.0  0.53957  0.48579  0.29965  1.0000
  H   H6        1.0  0.55315  0.52251  0.29125  1.0000
  H   H7        1.0  0.55297  0.47615  0.29042  1.0000
  H   H8        1.0  0.53463  0.56410  0.30611  1.0000
  C   C21       1.0  0.12735  0.20755  0.34797  1.0000
  N   N1        1.0  0.11046  0.19216  0.34645  1.0000
  C   C22       1.0  0.05823  0.14290  0.33511  1.0000
  H   H9        1.0  0.14120  0.19916  0.33808  1.0000
  N   N2        1.0  0.07478  0.15880  0.33971  1.0000
  H   H10       1.0  0.06052  0.12367  0.32299  1.0000
  C   C23       1.0  0.87734  0.79385  0.33878  1.0000
  N   N3        1.0  0.89425  0.80919  0.33732  1.0000
  C   C24       1.0  0.94646  0.85846  0.32861  1.0000
  H   H11       1.0  0.86345  0.80242  0.33210  1.0000
  N   N4        1.0  0.92992  0.84252  0.33192  1.0000
  H   H12       1.0  0.94411  0.87786  0.32029  1.0000
  C   C25       1.0  0.87819  0.23499  0.31912  1.0000
  C   C26       1.0  0.91284  0.20159  0.31609  1.0000
  C   C27       1.0  0.91537  0.22880  0.30721  1.0000
  C   C28       1.0  0.89813  0.24493  0.30874  1.0000
  H   H13       1.0  0.90036  0.26444  0.30177  1.0000
  C   C29       1.0  0.93030  0.18533  0.31624  1.0000
  C   C30       1.0  0.96571  0.15330  0.31985  1.0000
  C   C31       1.0  0.96718  0.18050  0.30922  1.0000
  C   C32       1.0  0.94990  0.19659  0.30742  1.0000
  C   C33       1.0  0.95207  0.22359  0.29781  1.0000
  C   C34       1.0  0.93491  0.23959  0.29771  1.0000
  H   H14       1.0  0.96611  0.23188  0.29155  1.0000
  H   H15       1.0  0.93687  0.25916  0.29140  1.0000
  H   H16       1.0  0.98113  0.18903  0.30280  1.0000
  C   C35       1.0  0.12608  0.76650  0.32466  1.0000
  C   C36       1.0  0.09176  0.80033  0.31706  1.0000
  C   C37       1.0  0.08932  0.77340  0.30057  1.0000
  C   C38       1.0  0.10641  0.75705  0.30430  1.0000
  H   H17       1.0  0.10430  0.73771  0.29240  1.0000
  C   C39       1.0  0.07440  0.81675  0.31597  1.0000
  C   C40       1.0  0.03907  0.84893  0.31829  1.0000
  C   C41       1.0  0.03772  0.82207  0.29973  1.0000
  C   C42       1.0  0.05496  0.80591  0.29847  1.0000
  C   C43       1.0  0.05289  0.77921  0.28119  1.0000
  C   C44       1.0  0.06995  0.76306  0.28221  1.0000
  H   H18       1.0  0.03895  0.77122  0.26873  1.0000
  H   H19       1.0  0.06804  0.74369  0.27053  1.0000
  H   H20       1.0  0.02389  0.81384  0.28697  1.0000
  C   C45       1.0  0.62786  0.70693  0.33271  1.0000
  N   N5        1.0  0.61103  0.69146  0.33391  1.0000
  C   C46       1.0  0.55892  0.64206  0.32853  1.0000
  H   H21       1.0  0.64153  0.69880  0.31692  1.0000
  N   N6        1.0  0.57545  0.65801  0.33160  1.0000
  H   H22       1.0  0.56111  0.62303  0.31278  1.0000
  C   C47       1.0  0.37679  0.29275  0.33509  1.0000
  N   N7        1.0  0.39364  0.30818  0.33616  1.0000
  C   C48       1.0  0.44578  0.35744  0.32921  1.0000
  H   H23       1.0  0.36316  0.30087  0.31866  1.0000
  N   N8        1.0  0.42923  0.34154  0.33303  1.0000
  H   H24       1.0  0.44363  0.37639  0.31219  1.0000
  C   C49       1.0  0.37881  0.73346  0.33113  1.0000
  C   C50       1.0  0.41352  0.70015  0.32937  1.0000
  C   C51       1.0  0.41606  0.72745  0.32457  1.0000
  C   C52       1.0  0.39880  0.74353  0.32560  1.0000
  H   H25       1.0  0.40105  0.76310  0.32144  1.0000
  C   C53       1.0  0.43098  0.68390  0.32917  1.0000
  C   C54       1.0  0.46641  0.65187  0.33029  1.0000
  C   C55       1.0  0.46787  0.67920  0.32442  1.0000
  C   C56       1.0  0.45060  0.69528  0.32391  1.0000
  C   C57       1.0  0.45279  0.72238  0.31857  1.0000
  C   C58       1.0  0.43564  0.73836  0.31897  1.0000
  H   H26       1.0  0.46685  0.73074  0.31480  1.0000
  H   H27       1.0  0.43760  0.75799  0.31544  1.0000
  H   H28       1.0  0.48182  0.68786  0.32038  1.0000
  C   C59       1.0  0.62534  0.26511  0.31696  1.0000
  C   C60       1.0  0.59089  0.29875  0.31148  1.0000
  C   C61       1.0  0.58849  0.27185  0.29434  1.0000
  C   C62       1.0  0.60566  0.25559  0.29698  1.0000
  H   H29       1.0  0.60358  0.23628  0.28463  1.0000
  C   C63       1.0  0.57348  0.31507  0.31162  1.0000
  C   C64       1.0  0.53813  0.34711  0.31682  1.0000
  C   C65       1.0  0.53672  0.32030  0.29775  1.0000
  C   C66       1.0  0.55400  0.30421  0.29489  1.0000
  C   C67       1.0  0.55198  0.27754  0.27689  1.0000
  C   C68       1.0  0.56910  0.26148  0.27652  1.0000
  H   H30       1.0  0.53803  0.26951  0.26492  1.0000
  H   H31       1.0  0.56723  0.24213  0.26438  1.0000
  H   H32       1.0  0.52283  0.31211  0.28579  1.0000
  C   C69       1.0  0.38510  0.04619  0.28398  1.0000
  C   C70       1.0  0.37229  0.09846  0.28569  1.0000
  C   C71       1.0  0.39019  0.09162  0.23849  1.0000
  C   C72       1.0  0.39609  0.06547  0.23684  1.0000
  H   H33       1.0  0.40929  0.06074  0.20450  1.0000
  C   C73       1.0  0.36684  0.12485  0.29292  1.0000
  C   C74       1.0  0.35669  0.17754  0.31504  1.0000
  C   C75       1.0  0.37439  0.17050  0.26758  1.0000
  C   C76       1.0  0.37952  0.14425  0.25500  1.0000
  C   C77       1.0  0.39709  0.13711  0.20710  1.0000
  C   C78       1.0  0.40230  0.11091  0.19823  1.0000
  H   H34       1.0  0.40636  0.15086  0.17956  1.0000
  H   H35       1.0  0.41538  0.10616  0.16512  1.0000
  H   H36       1.0  0.38351  0.18457  0.24085  1.0000
  C   C79       1.0  0.61526  0.95244  0.29780  1.0000
  C   C80       1.0  0.62948  0.90082  0.29372  1.0000
  C   C81       1.0  0.61130  0.90725  0.24791  1.0000
  C   C82       1.0  0.60466  0.93310  0.24938  1.0000
  H   H37       1.0  0.59130  0.93754  0.21781  1.0000
  C   C83       1.0  0.63569  0.87465  0.29773  1.0000
  C   C84       1.0  0.64719  0.82227  0.31423  1.0000
  C   C85       1.0  0.62933  0.82898  0.26744  1.0000
  C   C86       1.0  0.62350  0.85507  0.25777  1.0000
  C   C87       1.0  0.60569  0.86184  0.21104  1.0000
  C   C88       1.0  0.59969  0.88784  0.20560  1.0000
  H   H38       1.0  0.59678  0.84795  0.18204  1.0000
  H   H39       1.0  0.58646  0.89231  0.17320  1.0000
  H   H40       1.0  0.62051  0.81477  0.23955  1.0000
  C   C89       1.0  0.63387  0.05388  0.32992  1.0000
  N   N9        1.0  0.63996  0.07902  0.33427  1.0000
  C   C90       1.0  0.65890  0.15646  0.32429  1.0000
  H   H41       1.0  0.64273  0.04097  0.29592  1.0000
  N   N10       1.0  0.65273  0.13147  0.33142  1.0000
  H   H42       1.0  0.67236  0.16013  0.29279  1.0000
  C   C91       1.0  0.36666  0.94457  0.31879  1.0000
  N   N11       1.0  0.36089  0.91932  0.32361  1.0000
  C   C92       1.0  0.34361  0.84138  0.31256  1.0000
  H   H43       1.0  0.35847  0.95682  0.27908  1.0000
  N   N12       1.0  0.34916  0.86659  0.32025  1.0000
  H   H44       1.0  0.33099  0.83709  0.27566  1.0000
  C   C93       1.0  0.88552  0.54739  0.29192  1.0000
  C   C94       1.0  0.87226  0.59942  0.29400  1.0000
  C   C95       1.0  0.88966  0.59264  0.24314  1.0000
  C   C96       1.0  0.89582  0.56658  0.24160  1.0000
  H   H45       1.0  0.90871  0.56187  0.20688  1.0000
  C   C97       1.0  0.86669  0.62576  0.30146  1.0000
  C   C98       1.0  0.85651  0.67843  0.32435  1.0000
  C   C99       1.0  0.87356  0.67138  0.27247  1.0000
  C   C100      1.0  0.87872  0.64516  0.25965  1.0000
  C   C101      1.0  0.89572  0.63807  0.20789  1.0000
  C   C102      1.0  0.90109  0.61192  0.19914  1.0000
  H   H46       1.0  0.90453  0.65184  0.17760  1.0000
  H   H47       1.0  0.91380  0.60722  0.16331  1.0000
  H   H48       1.0  0.88225  0.68542  0.24293  1.0000
  C   C103      1.0  0.11641  0.45345  0.30634  1.0000
  C   C104      1.0  0.13036  0.40170  0.30852  1.0000
  C   C105      1.0  0.11286  0.40810  0.25778  1.0000
  C   C106      1.0  0.10634  0.43401  0.25629  1.0000
  H   H49       1.0  0.09343  0.43844  0.22130  1.0000
  C   C107      1.0  0.13637  0.37549  0.31542  1.0000
  C   C108      1.0  0.14738  0.32304  0.33687  1.0000
  C   C109      1.0  0.13022  0.32977  0.28522  1.0000
  C   C110      1.0  0.12464  0.35587  0.27313  1.0000
  C   C111      1.0  0.10752  0.36260  0.22155  1.0000
  C   C112      1.0  0.10173  0.38861  0.21345  1.0000
  H   H50       1.0  0.09896  0.34867  0.19084  1.0000
  H   H51       1.0  0.08898  0.39305  0.17745  1.0000
  H   H52       1.0  0.12173  0.31557  0.25537  1.0000
  C   C113      1.0  0.13480  0.55511  0.33784  1.0000
  N   N13       1.0  0.14081  0.58027  0.34297  1.0000
  C   C114      1.0  0.15967  0.65777  0.33542  1.0000
  H   H53       1.0  0.14390  0.54223  0.30496  1.0000
  N   N14       1.0  0.15349  0.63277  0.34175  1.0000
  H   H54       1.0  0.17332  0.66148  0.30561  1.0000
  C   C115      1.0  0.86758  0.44612  0.32489  1.0000
  N   N15       1.0  0.86168  0.42092  0.32857  1.0000
  C   C116      1.0  0.84368  0.34334  0.31429  1.0000
  H   H55       1.0  0.85907  0.45876  0.28805  1.0000
  N   N16       1.0  0.84951  0.36840  0.32298  1.0000
  H   H56       1.0  0.83069  0.33947  0.27936  1.0000
  C   C117      1.0  0.55342  0.99991  0.31441  1.0000
  C   C118      1.0  0.51088  0.99981  0.30516  1.0000
  C   C119      1.0  0.52159  0.02271  0.28210  1.0000
  C   C120      1.0  0.54293  0.02252  0.28792  1.0000
  H   H57       1.0  0.55085  0.03892  0.27160  1.0000
  C   C121      1.0  0.48951  0.99956  0.30315  1.0000
  C   C122      1.0  0.44680  0.99883  0.30499  1.0000
  C   C123      1.0  0.45740  0.02137  0.27784  1.0000
  C   C124      1.0  0.47876  0.02211  0.27691  1.0000
  C   C125      1.0  0.48950  0.04464  0.25210  1.0000
  C   C126      1.0  0.51081  0.04497  0.25500  1.0000
  H   H58       1.0  0.48193  0.06105  0.23323  1.0000
  H   H59       1.0  0.51833  0.06159  0.23804  1.0000
  H   H60       1.0  0.44959  0.03767  0.25964  1.0000
  C   C127      1.0  0.05444  0.50120  0.31268  1.0000
  C   C128      1.0  0.01185  0.50145  0.30512  1.0000
  C   C129      1.0  0.02257  0.52471  0.28699  1.0000
  C   C130      1.0  0.04393  0.52430  0.29169  1.0000
  H   H61       1.0  0.05183  0.54099  0.27937  1.0000
  C   C131      1.0  0.99048  0.50137  0.30458  1.0000
  C   C132      1.0  0.94777  0.50078  0.30932  1.0000
  C   C133      1.0  0.95834  0.52379  0.28707  1.0000
  C   C134      1.0  0.97971  0.52445  0.28477  1.0000
  C   C135      1.0  0.99046  0.54738  0.26484  1.0000
  C   C136      1.0  0.01178  0.54753  0.26626  1.0000
  H   H62       1.0  0.98289  0.56418  0.25064  1.0000
  H   H63       1.0  0.01930  0.56442  0.25298  1.0000
  H   H64       1.0  0.95051  0.54045  0.27353  1.0000
  C   C137      1.0  0.29069  0.22299  0.32128  1.0000
  N   N17       1.0  0.27051  0.22708  0.33019  1.0000
  C   C138      1.0  0.20768  0.23594  0.34802  1.0000
  H   H65       1.0  0.29507  0.20585  0.29324  1.0000
  N   N18       1.0  0.22822  0.23345  0.34489  1.0000
  H   H66       1.0  0.19895  0.22143  0.32194  1.0000
  C   C139      1.0  0.71359  0.77711  0.31217  1.0000
  N   N19       1.0  0.73382  0.77338  0.32080  1.0000
  C   C140      1.0  0.79676  0.76549  0.33725  1.0000
  H   H67       1.0  0.70899  0.79380  0.28164  1.0000
  N   N20       1.0  0.77620  0.76771  0.33469  1.0000
  H   H68       1.0  0.80533  0.77962  0.30795  1.0000
  C   C141      1.0  0.69854  0.24082  0.32374  1.0000
  C   C142      1.0  0.74107  0.24827  0.31014  1.0000
  C   C143      1.0  0.72765  0.26822  0.28170  1.0000
  C   C144      1.0  0.70644  0.26426  0.28927  1.0000
  H   H69       1.0  0.69670  0.27840  0.26785  1.0000
  C   C145      1.0  0.76234  0.25151  0.30439  1.0000
  C   C146      1.0  0.80495  0.25879  0.30103  1.0000
  C   C147      1.0  0.79158  0.27826  0.26899  1.0000
  C   C148      1.0  0.77032  0.27503  0.27039  1.0000
  C   C149      1.0  0.75700  0.29474  0.24131  1.0000
  C   C150      1.0  0.73585  0.29135  0.24678  1.0000
  H   H70       1.0  0.76257  0.31183  0.21692  1.0000
  H   H71       1.0  0.72652  0.30599  0.22596  1.0000
  H   H72       1.0  0.79732  0.29543  0.24595  1.0000
  C   C151      1.0  0.30562  0.75613  0.30545  1.0000
  C   C152      1.0  0.26299  0.75009  0.31170  1.0000
  C   C153      1.0  0.27133  0.77133  0.26417  1.0000
  C   C154      1.0  0.29264  0.77402  0.26177  1.0000
  H   H73       1.0  0.29872  0.78976  0.22984  1.0000
  C   C155      1.0  0.24167  0.74771  0.31916  1.0000
  C   C156      1.0  0.19910  0.74194  0.33558  1.0000
  C   C157      1.0  0.20730  0.76317  0.28804  1.0000
  C   C158      1.0  0.22857  0.76623  0.27877  1.0000
  C   C159      1.0  0.23711  0.78698  0.23031  1.0000
  C   C160      1.0  0.25831  0.78956  0.22330  1.0000
  H   H74       1.0  0.22800  0.80052  0.20062  1.0000
  H   H75       1.0  0.26414  0.80500  0.18900  1.0000
  H   H76       1.0  0.19774  0.77605  0.25747  1.0000
  C   C161      1.0  0.98375  0.13776  0.32443  1.0000
  N   N21       1.0  0.98420  0.11142  0.32272  1.0000
  C   C162      1.0  0.00189  0.09752  0.32714  1.0000
  N   N22       1.0  0.01968  0.11111  0.33404  1.0000
  C   C163      1.0  0.02024  0.13747  0.33681  1.0000
  N   N23       1.0  0.00203  0.14965  0.33164  1.0000
  C   C164      1.0  0.02098  0.86438  0.32261  1.0000
  N   N24       1.0  0.02035  0.89076  0.32251  1.0000
  C   C165      1.0  0.00245  0.90426  0.32514  1.0000
  N   N25       1.0  0.98478  0.89032  0.32877  1.0000
  C   C166      1.0  0.98443  0.86398  0.33025  1.0000
  N   N26       1.0  0.00278  0.85215  0.32681  1.0000
  C   C167      1.0  0.48448  0.63630  0.33205  1.0000
  N   N27       1.0  0.48500  0.60992  0.32948  1.0000
  C   C168      1.0  0.50281  0.59623  0.33031  1.0000
  N   N28       1.0  0.52057  0.60999  0.33447  1.0000
  C   C169      1.0  0.52106  0.63632  0.33827  1.0000
  N   N29       1.0  0.50276  0.64832  0.33662  1.0000
  C   C170      1.0  0.52009  0.36257  0.32300  1.0000
  N   N30       1.0  0.51973  0.38891  0.32223  1.0000
  C   C171      1.0  0.50211  0.40290  0.32753  1.0000
  N   N31       1.0  0.48429  0.38937  0.33452  1.0000
  C   C172      1.0  0.48368  0.36299  0.33674  1.0000
  N   N32       1.0  0.50182  0.35067  0.33051  1.0000
  C   C173      1.0  0.39408  0.97689  0.33877  1.0000
  N   N33       1.0  0.38374  0.99927  0.32103  1.0000
  C   C174      1.0  0.39389  0.02134  0.29763  1.0000
  N   N34       1.0  0.41443  0.02013  0.29369  1.0000
  C   C175      1.0  0.42531  0.99851  0.30955  1.0000
  N   N35       1.0  0.41466  0.97715  0.33196  1.0000
  C   C176      1.0  0.60585  0.02199  0.34626  1.0000
  N   N36       1.0  0.61623  0.99944  0.33161  1.0000
  C   C177      1.0  0.60612  0.97702  0.31185  1.0000
  N   N37       1.0  0.58553  0.97784  0.30819  1.0000
  C   C178      1.0  0.57477  0.99971  0.32076  1.0000
  N   N38       1.0  0.58530  0.02144  0.33903  1.0000
  C   C179      1.0  0.89526  0.47816  0.34351  1.0000
  N   N39       1.0  0.88473  0.50048  0.32732  1.0000
  C   C180      1.0  0.89467  0.52276  0.30493  1.0000
  N   N40       1.0  0.91522  0.52193  0.30024  1.0000
  C   C181      1.0  0.92629  0.50036  0.31478  1.0000
  N   N41       1.0  0.91582  0.47876  0.33616  1.0000
  C   C182      1.0  0.10672  0.52316  0.35034  1.0000
  N   N42       1.0  0.11717  0.50056  0.33809  1.0000
  C   C183      1.0  0.10719  0.47814  0.31716  1.0000
  N   N43       1.0  0.08664  0.47900  0.31013  1.0000
  C   C184      1.0  0.07580  0.50093  0.32033  1.0000
  N   N44       1.0  0.08625  0.52263  0.34000  1.0000
  C   C185      1.0  0.14258  0.25224  0.35879  1.0000
  N   N45       1.0  0.16259  0.24563  0.36919  1.0000
  C   C186      1.0  0.17758  0.26406  0.37193  1.0000
  N   N46       1.0  0.17206  0.28924  0.36183  1.0000
  C   C187      1.0  0.15265  0.29672  0.34946  1.0000
  N   N47       1.0  0.13843  0.27786  0.34825  1.0000
  C   C188      1.0  0.86200  0.74919  0.34658  1.0000
  N   N48       1.0  0.84208  0.75603  0.35879  1.0000
  C   C189      1.0  0.82699  0.73777  0.36258  1.0000
  N   N49       1.0  0.83227  0.71254  0.35161  1.0000
  C   C190      1.0  0.85156  0.70483  0.33750  1.0000
  N   N50       1.0  0.86592  0.72352  0.33538  1.0000
  C   C191      1.0  0.86120  0.25240  0.32249  1.0000
  N   N51       1.0  0.84123  0.24565  0.31153  1.0000
  C   C192      1.0  0.82611  0.26392  0.31064  1.0000
  N   N52       1.0  0.83148  0.28907  0.32286  1.0000
  C   C193      1.0  0.85084  0.29671  0.33582  1.0000
  N   N53       1.0  0.86519  0.27800  0.33505  1.0000
  C   C194      1.0  0.14274  0.74877  0.33372  1.0000
  N   N54       1.0  0.16289  0.75526  0.33056  1.0000
  C   C195      1.0  0.17784  0.73695  0.33940  1.0000
  N   N55       1.0  0.17206  0.71189  0.34998  1.0000
  C   C196      1.0  0.15244  0.70448  0.35417  1.0000
  N   N56       1.0  0.13827  0.72330  0.34616  1.0000
  C   C197      1.0  0.64300  0.75162  0.34209  1.0000
  N   N57       1.0  0.66316  0.74519  0.34632  1.0000
  C   C198      1.0  0.67811  0.76360  0.34008  1.0000
  N   N58       1.0  0.67229  0.78868  0.33063  1.0000
  C   C199      1.0  0.65268  0.79600  0.32525  1.0000
  N   N59       1.0  0.63851  0.77713  0.33071  1.0000
  C   C200      1.0  0.36158  0.24814  0.34504  1.0000
  N   N60       1.0  0.34147  0.25477  0.35030  1.0000
  C   C201      1.0  0.32637  0.23655  0.34433  1.0000
  N   N61       1.0  0.33206  0.21146  0.33390  1.0000
  C   C202      1.0  0.35160  0.20391  0.32751  1.0000
  N   N62       1.0  0.36592  0.22261  0.33281  1.0000
  C   C203      1.0  0.36171  0.75075  0.33176  1.0000
  N   N63       1.0  0.34186  0.74361  0.31982  1.0000
  C   C204      1.0  0.32664  0.76166  0.31557  1.0000
  N   N64       1.0  0.33166  0.78700  0.32556  1.0000
  C   C205      1.0  0.35090  0.79502  0.33948  1.0000
  N   N65       1.0  0.36542  0.77651  0.34198  1.0000
  C   C206      1.0  0.64207  0.24746  0.32499  1.0000
  N   N66       1.0  0.66221  0.25396  0.32094  1.0000
  C   C207      1.0  0.67725  0.23568  0.32813  1.0000
  N   N67       1.0  0.67146  0.21061  0.33865  1.0000
  C   C208      1.0  0.65187  0.20317  0.34405  1.0000
  N   N68       1.0  0.63766  0.22197  0.33727  1.0000
  C   C209      1.0  0.01984  0.94707  0.33584  1.0000
  N   N69       1.0  0.01908  0.97338  0.33520  1.0000
  C   C210      1.0  0.01949  0.05483  0.33742  1.0000
  H   H77       1.0  0.03361  0.93850  0.34641  1.0000
  N   N70       1.0  0.01889  0.02852  0.33611  1.0000
  H   H78       1.0  0.03320  0.06349  0.34838  1.0000
  C   C211      1.0  0.48472  0.44577  0.33776  1.0000
  N   N71       1.0  0.48548  0.47208  0.33703  1.0000
  C   C212      1.0  0.48508  0.55358  0.33837  1.0000
  H   H79       1.0  0.47092  0.43722  0.34767  1.0000
  N   N72       1.0  0.48567  0.52726  0.33721  1.0000
  H   H80       1.0  0.47135  0.56228  0.34843  1.0000
  C   C213      1.0  0.12569  0.23466  0.36003  1.0000
  C   C214      1.0  0.09113  0.20112  0.35741  1.0000
  C   C215      1.0  0.08855  0.22812  0.37183  1.0000
  C   C216      1.0  0.10575  0.24432  0.37310  1.0000
  H   H81       1.0  0.10350  0.26367  0.38400  1.0000
  C   C217      1.0  0.07370  0.18484  0.35425  1.0000
  C   C218      1.0  0.03830  0.15287  0.34447  1.0000
  C   C219      1.0  0.03683  0.17984  0.36077  1.0000
  C   C220      1.0  0.05409  0.19589  0.36564  1.0000
  C   C221      1.0  0.05189  0.22268  0.38075  1.0000
  C   C222      1.0  0.06901  0.23869  0.38384  1.0000
  H   H82       1.0  0.03784  0.23081  0.38886  1.0000
  H   H83       1.0  0.06703  0.25812  0.39407  1.0000
  H   H84       1.0  0.02289  0.18824  0.36918  1.0000
  C   C223      1.0  0.87899  0.76662  0.34692  1.0000
  C   C224      1.0  0.91362  0.80005  0.34453  1.0000
  C   C225      1.0  0.91621  0.77288  0.35460  1.0000
  C   C226      1.0  0.89898  0.75674  0.35572  1.0000
  H   H85       1.0  0.90126  0.73727  0.36357  1.0000
  C   C227      1.0  0.93105  0.81632  0.34205  1.0000
  C   C228      1.0  0.96641  0.84839  0.33506  1.0000
  C   C229      1.0  0.96795  0.82122  0.34628  1.0000
  C   C230      1.0  0.95070  0.80512  0.34981  1.0000
  C   C231      1.0  0.95293  0.77815  0.36044  1.0000
  C   C232      1.0  0.93580  0.76214  0.36281  1.0000
  H   H86       1.0  0.96700  0.76990  0.36603  1.0000
  H   H87       1.0  0.93779  0.74260  0.37003  1.0000
  H   H88       1.0  0.98192  0.81271  0.35214  1.0000
  C   C233      1.0  0.87660  0.20772  0.32588  1.0000
  N   N73       1.0  0.89352  0.19240  0.32477  1.0000
  C   C234      1.0  0.94578  0.14317  0.32694  1.0000
  H   H89       1.0  0.86275  0.19911  0.33351  1.0000
  N   N74       1.0  0.92923  0.15909  0.32539  1.0000
  H   H90       1.0  0.94349  0.12376  0.33501  1.0000
  C   C235      1.0  0.12768  0.79357  0.33800  1.0000
  N   N75       1.0  0.11089  0.80909  0.33465  1.0000
  C   C236      1.0  0.05887  0.85872  0.33332  1.0000
  H   H91       1.0  0.14133  0.80179  0.35350  1.0000
  N   N76       1.0  0.07538  0.84271  0.33235  1.0000
  H   H92       1.0  0.06105  0.87786  0.34743  1.0000
  C   C237      1.0  0.62631  0.73387  0.34889  1.0000
  C   C238      1.0  0.59189  0.70015  0.35175  1.0000
  C   C239      1.0  0.58948  0.72693  0.37096  1.0000
  C   C240      1.0  0.60662  0.74323  0.36957  1.0000
  H   H93       1.0  0.60453  0.76245  0.38348  1.0000
  C   C241      1.0  0.57449  0.68381  0.35052  1.0000
  C   C242      1.0  0.53912  0.65176  0.34408  1.0000
  C   C243      1.0  0.53777  0.67847  0.36502  1.0000
  C   C244      1.0  0.55503  0.69456  0.36844  1.0000
  C   C245      1.0  0.55299  0.72111  0.38837  1.0000
  C   C246      1.0  0.57010  0.73719  0.38969  1.0000
  H   H94       1.0  0.53905  0.72904  0.40115  1.0000
  H   H95       1.0  0.56822  0.75645  0.40327  1.0000
  H   H96       1.0  0.52391  0.68661  0.37810  1.0000
  C   C247      1.0  0.37830  0.26583  0.35176  1.0000
  C   C248      1.0  0.41274  0.29949  0.35463  1.0000
  C   C249      1.0  0.41510  0.27275  0.37464  1.0000
  C   C250      1.0  0.39794  0.25646  0.37314  1.0000
  H   H97       1.0  0.39997  0.23725  0.38748  1.0000
  C   C251      1.0  0.43016  0.31581  0.35310  1.0000
  C   C252      1.0  0.46557  0.34772  0.34480  1.0000
  C   C253      1.0  0.46689  0.32112  0.36730  1.0000
  C   C254      1.0  0.44960  0.30508  0.37159  1.0000
  C   C255      1.0  0.45158  0.27859  0.39261  1.0000
  C   C256      1.0  0.43446  0.26254  0.39414  1.0000
  H   H98       1.0  0.46551  0.27067  0.40583  1.0000
  H   H99       1.0  0.43631  0.24331  0.40838  1.0000
  H   H100      1.0  0.48074  0.31300  0.38061  1.0000
  C   C257      1.0  0.37722  0.70613  0.33458  1.0000
  N   N77       1.0  0.39416  0.69084  0.33403  1.0000
  C   C258      1.0  0.44647  0.64165  0.33460  1.0000
  H   H101      1.0  0.36334  0.69741  0.33849  1.0000
  N   N78       1.0  0.42990  0.65757  0.33414  1.0000
  H   H102      1.0  0.44417  0.62214  0.33902  1.0000
  C   C259      1.0  0.62687  0.29215  0.33093  1.0000
  N   N79       1.0  0.61002  0.30758  0.32860  1.0000
  C   C260      1.0  0.55795  0.35693  0.33087  1.0000
  H   H103      1.0  0.64053  0.30041  0.34617  1.0000
  N   N80       1.0  0.57447  0.34098  0.32860  1.0000
  H   H104      1.0  0.56015  0.37605  0.34543  1.0000
  C   C261      1.0  0.36695  0.05403  0.32641  1.0000
  N   N81       1.0  0.36141  0.07941  0.32663  1.0000
  C   C262      1.0  0.34436  0.15734  0.34878  1.0000
  H   H105      1.0  0.35851  0.04120  0.36279  1.0000
  N   N82       1.0  0.34989  0.13223  0.33798  1.0000
  H   H106      1.0  0.33147  0.16124  0.38435  1.0000
  C   C263      1.0  0.63373  0.94509  0.33863  1.0000
  N   N83       1.0  0.63993  0.91997  0.33622  1.0000
  C   C264      1.0  0.65907  0.84263  0.34976  1.0000
  H   H107      1.0  0.64192  0.95800  0.37577  1.0000
  N   N84       1.0  0.65287  0.86759  0.34173  1.0000
  H   H108      1.0  0.67202  0.83893  0.38508  1.0000
  C   C265      1.0  0.61474  0.04651  0.36421  1.0000
  C   C266      1.0  0.62875  0.09817  0.37284  1.0000
  C   C267      1.0  0.60983  0.09170  0.41235  1.0000
  C   C268      1.0  0.60326  0.06582  0.40865  1.0000
  H   H109      1.0  0.58936  0.06134  0.43526  1.0000
  C   C269      1.0  0.63492  0.12438  0.37022  1.0000
  C   C270      1.0  0.64641  0.17685  0.35525  1.0000
  C   C271      1.0  0.62789  0.17008  0.39682  1.0000
  C   C272      1.0  0.62203  0.14396  0.40553  1.0000
  C   C273      1.0  0.60349  0.13715  0.44640  1.0000
  C   C274      1.0  0.59748  0.11113  0.45031  1.0000
  H   H110      1.0  0.59405  0.15105  0.47185  1.0000
  H   H111      1.0  0.58371  0.10666  0.47796  1.0000
  H   H112      1.0  0.61854  0.18427  0.42122  1.0000
  C   C275      1.0  0.38497  0.95271  0.35915  1.0000
  C   C276      1.0  0.37153  0.90087  0.36872  1.0000
  C   C277      1.0  0.38946  0.90822  0.41488  1.0000
  C   C278      1.0  0.39579  0.93421  0.41034  1.0000
  H   H113      1.0  0.40914  0.93933  0.44074  1.0000
  C   C279      1.0  0.36587  0.87448  0.36602  1.0000
  C   C280      1.0  0.35569  0.82157  0.35049  1.0000
  C   C281      1.0  0.37305  0.82921  0.39941  1.0000
  C   C282      1.0  0.37825  0.85556  0.40838  1.0000
  C   C283      1.0  0.39569  0.86323  0.45621  1.0000
  C   C284      1.0  0.40122  0.88944  0.45975  1.0000
  H   H114      1.0  0.40476  0.84982  0.48682  1.0000
  H   H115      1.0  0.41428  0.89452  0.49244  1.0000
  H   H116      1.0  0.38205  0.81548  0.42895  1.0000
  C   C285      1.0  0.86777  0.55510  0.33778  1.0000
  N   N85       1.0  0.86203  0.58040  0.33816  1.0000
  C   C286      1.0  0.84477  0.65823  0.36191  1.0000
  H   H117      1.0  0.85988  0.54230  0.37659  1.0000
  N   N86       1.0  0.85031  0.63313  0.35054  1.0000
  H   H118      1.0  0.83237  0.66212  0.40070  1.0000
  C   C287      1.0  0.13428  0.44614  0.35212  1.0000
  N   N87       1.0  0.14034  0.42096  0.35261  1.0000
  C   C288      1.0  0.15883  0.34344  0.37480  1.0000
  H   H119      1.0  0.14202  0.45913  0.39069  1.0000
  N   N88       1.0  0.15289  0.36843  0.36415  1.0000
  H   H120      1.0  0.17129  0.33976  0.41346  1.0000
  C   C289      1.0  0.11547  0.54768  0.36968  1.0000
  C   C290      1.0  0.12932  0.59939  0.38008  1.0000
  C   C291      1.0  0.11015  0.59287  0.41711  1.0000
  C   C292      1.0  0.10365  0.56697  0.41254  1.0000
  H   H121      1.0  0.08959  0.56245  0.43730  1.0000
  C   C293      1.0  0.13545  0.62562  0.37827  1.0000
  C   C294      1.0  0.14695  0.67814  0.36483  1.0000
  C   C295      1.0  0.12818  0.67131  0.40401  1.0000
  C   C296      1.0  0.12230  0.64517  0.41191  1.0000
  C   C297      1.0  0.10351  0.63831  0.45034  1.0000
  C   C298      1.0  0.09752  0.61226  0.45345  1.0000
  H   H122      1.0  0.09388  0.65217  0.47458  1.0000
  H   H123      1.0  0.08358  0.60775  0.47928  1.0000
  H   H124      1.0  0.11865  0.68547  0.42717  1.0000
  C   C299      1.0  0.88631  0.45378  0.36251  1.0000
  C   C300      1.0  0.87262  0.40204  0.36999  1.0000
  C   C301      1.0  0.89103  0.40885  0.41335  1.0000
  C   C302      1.0  0.89749  0.43479  0.40994  1.0000
  H   H125      1.0  0.91113  0.43954  0.43848  1.0000
  C   C303      1.0  0.86672  0.37576  0.36622  1.0000
  C   C304      1.0  0.85593  0.32312  0.34840  1.0000
  C   C305      1.0  0.87381  0.33018  0.39466  1.0000
  C   C306      1.0  0.87932  0.35639  0.40472  1.0000
  C   C307      1.0  0.89728  0.36351  0.44979  1.0000
  C   C308      1.0  0.90306  0.38962  0.45441  1.0000
  H   H126      1.0  0.90652  0.34978  0.47760  1.0000
  H   H127      1.0  0.91645  0.39432  0.48506  1.0000
  H   H128      1.0  0.88296  0.31614  0.42134  1.0000
  C   C309      1.0  0.54187  0.97760  0.33444  1.0000
  N   N89       1.0  0.52136  0.97837  0.33013  1.0000
  C   C310      1.0  0.45851  0.97697  0.32922  1.0000
  H   H129      1.0  0.54862  0.96078  0.35476  1.0000
  N   N90       1.0  0.47904  0.97808  0.32781  1.0000
  H   H130      1.0  0.45186  0.96012  0.34969  1.0000
  C   C311      1.0  0.04285  0.47859  0.32764  1.0000
  N   N91       1.0  0.02233  0.47952  0.32442  1.0000
  C   C312      1.0  0.95951  0.47845  0.32747  1.0000
  H   H131      1.0  0.04955  0.46140  0.34417  1.0000
  N   N92       1.0  0.98003  0.47949  0.32478  1.0000
  H   H132      1.0  0.95289  0.46123  0.34408  1.0000
  C   C313      1.0  0.30511  0.24172  0.34971  1.0000
  C   C314      1.0  0.26263  0.24894  0.36623  1.0000
  C   C315      1.0  0.27609  0.26876  0.39541  1.0000
  C   C316      1.0  0.29728  0.26491  0.38635  1.0000
  H   H133      1.0  0.30707  0.27891  0.40845  1.0000
  C   C317      1.0  0.24137  0.25203  0.37356  1.0000
  C   C318      1.0  0.19877  0.25900  0.38015  1.0000
  C   C319      1.0  0.21217  0.27835  0.41286  1.0000
  C   C320      1.0  0.23343  0.27527  0.40990  1.0000
  C   C321      1.0  0.24679  0.29486  0.43967  1.0000
  C   C322      1.0  0.26793  0.29161  0.43265  1.0000
  H   H134      1.0  0.24125  0.31175  0.46576  1.0000
  H   H135      1.0  0.27729  0.30615  0.45406  1.0000
  H   H136      1.0  0.20643  0.29534  0.43752  1.0000
  C   C323      1.0  0.69940  0.75864  0.34441  1.0000
  C   C324      1.0  0.74195  0.75214  0.36007  1.0000
  C   C325      1.0  0.72871  0.73258  0.39306  1.0000
  C   C326      1.0  0.70747  0.73604  0.38429  1.0000
  H   H137      1.0  0.69783  0.72229  0.40934  1.0000
  C   C327      1.0  0.76324  0.74941  0.36708  1.0000
  C   C328      1.0  0.80588  0.74296  0.37256  1.0000
  C   C329      1.0  0.79271  0.72396  0.40923  1.0000
  C   C330      1.0  0.77143  0.72680  0.40692  1.0000
  C   C331      1.0  0.75828  0.70749  0.44046  1.0000
  C   C332      1.0  0.73711  0.71038  0.43374  1.0000
  H   H138      1.0  0.76401  0.69105  0.46907  1.0000
  H   H139      1.0  0.72790  0.69606  0.45798  1.0000
  H   H140      1.0  0.79864  0.70737  0.43611  1.0000
  C   C333      1.0  0.71291  0.22195  0.35140  1.0000
  N   N93       1.0  0.73312  0.22616  0.34396  1.0000
  C   C334      1.0  0.79603  0.23546  0.33075  1.0000
  H   H141      1.0  0.70848  0.20462  0.37786  1.0000
  N   N94       1.0  0.77548  0.23283  0.33241  1.0000
  H   H142      1.0  0.80473  0.22084  0.35617  1.0000
  C   C335      1.0  0.29639  0.73477  0.34810  1.0000
  N   N95       1.0  0.27582  0.73277  0.35085  1.0000
  C   C336      1.0  0.21313  0.72450  0.37501  1.0000
  H   H143      1.0  0.30486  0.72161  0.38285  1.0000
  N   N96       1.0  0.23340  0.72784  0.36577  1.0000
  H   H144      1.0  0.20836  0.70883  0.41107  1.0000
