data_image0
_chemical_formula_structural       C3NC2NHNHCH2C3NC2NHNHCH2C3NC2NHNHCH2C3NC2NHNHCH2C3NC2NHNHCH2C3NC2NHNHCH2C3H2CH3CH2C3H2CH3CH2C3H2CH3CH2C3H2CH3CH2C3H2CH3CH2C3H2CH3CH2C3H2CH2CH2C3H2CH2CH2C3H2CH2CH2C3H2CH2CH2C3H2CH2CH2C3H2CH2CH2C3NC2NHNH2CH2C3NC2NHNH2CH2C3NC2NHNH2CH2C3NC2NHNH2CH2C3NC2NHNH2CH2C3NC2NHNH2CH2C3H2CH3CH2C3H2CH3CH2C3H2CH3CH2C3H2CH3CH2C3H2CH3CH2C3H2CH3CH2C3H4CH2C3H4CH2C3H4CH2C3H4CH2C3H4CH2C3H4CH2CNCNCN2HNHNHCNCNCN2HNHNHCNCNCN2HNHNHCNCNCN2HNHNHCNCNCN2HNHNHCNCNCN2HNHNHCNCNCN2HNHNHCNCNCN2HNHNHCNCNCN2HNHNHCNCNCN2HNHNHCNCNCN2HNHNHCNCNCN2HNHNHCNCNCN2HNHNHCNCNCN2HNHNHCNCNCN2HNHNHCNCNCN2HNHNHCNCNCN2HNHNHCNCNCN2HNHNHCNCNCN2HNHNHCNCNCN2HNHNHCNCNCN2HNHNHCNCNCN2HNHNHCNCNCN2HNHNHCNCNCN2HNHNHC3H2CH3CH2C3H2CH3CH2C3H2CH3CH2C3H2CH3CH2C3H2CH3CH2C3H2CH3CH2C3NC2NHNHCH2C3NC2NHNHCH2C3NC2NHNHCH2C3NC2NHNHCH2C3NC2NHNHCH2C3NC2NHNHCH2C3NC2NHNH2CH2C3NC2NHNH2CH2C3NC2NHNH2CH2C3NC2NHNH2CH2C3NC2NHNH2CH2C3NC2NHNH2CH2C3H2CH2CH2C3H2CH2CH2C3H2CH2CH2C3H2CH2CH2C3H2CH2CH2C3H2CH2CH2C3NC2NHNHCH2C3NC2NHNHCH2C3NC2NHNHCH2C3NC2NHNHCH2C3NC2NHNHCH2C3NC2NHNHCH2C3NC2NHNCH2CH2C3NC2NHNCH2CH2C3NC2NHNCH2CH2C3NC2NHNCH2CH2C3NC2NHNCH2CH2C3NC2NHNCH2CH2
_chemical_formula_sum              "C468 N252 H468"
_cell_length_a       80.1067
_cell_length_b       80.1067
_cell_length_c       15.0238
_cell_angle_alpha    90
_cell_angle_beta     90
_cell_angle_gamma    120

_space_group_name_H-M_alt    "P 1"
_space_group_IT_number       1

loop_
  _space_group_symop_operation_xyz
  'x, y, z'

loop_
  _atom_site_type_symbol
  _atom_site_label
  _atom_site_symmetry_multiplicity
  _atom_site_fract_x
  _atom_site_fract_y
  _atom_site_fract_z
  _atom_site_occupancy
  C   C1        1.0  0.13110  0.43284  0.24751  1.0000
  C   C2        1.0  0.12446  0.41363  0.21831  1.0000
  C   C3        1.0  0.12147  0.39900  0.27997  1.0000
  N   N1        1.0  0.12118  0.40985  0.12965  1.0000
  C   C4        1.0  0.12380  0.42330  0.06792  1.0000
  C   C5        1.0  0.13024  0.44239  0.09593  1.0000
  N   N2        1.0  0.13345  0.44594  0.18426  1.0000
  H   H1        1.0  0.12103  0.41934  0.00267  1.0000
  N   N3        1.0  0.13352  0.45829  0.04234  1.0000
  H   H2        1.0  0.14791  0.46843  0.04638  1.0000
  C   C6        1.0  0.11433  0.37882  0.24926  1.0000
  H   H3        1.0  0.12234  0.37902  0.18979  1.0000
  H   H4        1.0  0.09922  0.37293  0.23028  1.0000
  C   C7        1.0  0.57464  0.68669  0.24748  1.0000
  C   C8        1.0  0.59384  0.69925  0.21830  1.0000
  C   C9        1.0  0.60847  0.71091  0.27995  1.0000
  N   N4        1.0  0.59764  0.69975  0.12965  1.0000
  C   C10       1.0  0.58419  0.68891  0.06792  1.0000
  C   C11       1.0  0.56511  0.67626  0.09591  1.0000
  N   N5        1.0  0.56154  0.67592  0.18423  1.0000
  H   H5        1.0  0.58816  0.69009  0.00268  1.0000
  N   N6        1.0  0.54921  0.66362  0.04230  1.0000
  H   H6        1.0  0.53907  0.66787  0.04626  1.0000
  C   C12       1.0  0.62865  0.72395  0.24926  1.0000
  H   H7        1.0  0.62846  0.73176  0.18978  1.0000
  H   H8        1.0  0.63454  0.71473  0.23031  1.0000
  C   C13       1.0  0.32080  0.87640  0.24733  1.0000
  C   C14       1.0  0.30824  0.88303  0.21817  1.0000
  C   C15       1.0  0.29656  0.88598  0.27981  1.0000
  N   N7        1.0  0.30775  0.88635  0.12953  1.0000
  C   C16       1.0  0.31861  0.88377  0.06780  1.0000
  C   C17       1.0  0.33126  0.87734  0.09578  1.0000
  N   N8        1.0  0.33159  0.87409  0.18409  1.0000
  H   H9        1.0  0.31744  0.88657  0.00257  1.0000
  N   N9        1.0  0.34392  0.87410  0.04216  1.0000
  H   H10       1.0  0.33968  0.85972  0.04602  1.0000
  C   C18       1.0  0.28352  0.89312  0.24912  1.0000
  H   H11       1.0  0.27571  0.88511  0.18965  1.0000
  H   H12       1.0  0.29275  0.90823  0.23014  1.0000
  C   C19       1.0  0.88659  0.56444  0.24736  1.0000
  C   C20       1.0  0.89322  0.58364  0.21821  1.0000
  C   C21       1.0  0.89616  0.59826  0.27986  1.0000
  N   N10       1.0  0.89655  0.58745  0.12958  1.0000
  C   C22       1.0  0.89399  0.57402  0.06785  1.0000
  C   C23       1.0  0.88756  0.55493  0.09581  1.0000
  N   N11       1.0  0.88430  0.55136  0.18411  1.0000
  H   H13       1.0  0.89680  0.57800  0.00263  1.0000
  N   N12       1.0  0.88434  0.53905  0.04219  1.0000
  H   H14       1.0  0.86996  0.52890  0.04598  1.0000
  C   C24       1.0  0.90330  0.61845  0.24916  1.0000
  H   H15       1.0  0.89529  0.61825  0.18971  1.0000
  H   H16       1.0  0.91841  0.62433  0.23017  1.0000
  C   C25       1.0  0.44304  0.31057  0.24741  1.0000
  C   C26       1.0  0.42385  0.29801  0.21824  1.0000
  C   C27       1.0  0.40922  0.28633  0.27988  1.0000
  N   N13       1.0  0.42005  0.29752  0.12959  1.0000
  C   C28       1.0  0.43349  0.30838  0.06787  1.0000
  C   C29       1.0  0.45257  0.32103  0.09585  1.0000
  N   N14       1.0  0.45614  0.32136  0.18417  1.0000
  H   H17       1.0  0.42952  0.30720  0.00264  1.0000
  N   N15       1.0  0.46846  0.33369  0.04225  1.0000
  H   H18       1.0  0.47861  0.32944  0.04613  1.0000
  C   C30       1.0  0.38904  0.27329  0.24915  1.0000
  H   H19       1.0  0.38925  0.26547  0.18974  1.0000
  H   H20       1.0  0.38316  0.28251  0.23009  1.0000
  C   C31       1.0  0.69691  0.12090  0.24745  1.0000
  C   C32       1.0  0.70948  0.11427  0.21827  1.0000
  C   C33       1.0  0.72115  0.11131  0.27991  1.0000
  N   N16       1.0  0.70997  0.11096  0.12963  1.0000
  C   C34       1.0  0.69911  0.11354  0.06790  1.0000
  C   C35       1.0  0.68646  0.11998  0.09588  1.0000
  N   N17       1.0  0.68613  0.12321  0.18419  1.0000
  H   H21       1.0  0.70029  0.11075  0.00267  1.0000
  N   N18       1.0  0.67381  0.12322  0.04228  1.0000
  H   H22       1.0  0.67805  0.13760  0.04617  1.0000
  C   C36       1.0  0.73419  0.10418  0.24920  1.0000
  H   H23       1.0  0.74201  0.11220  0.18978  1.0000
  H   H24       1.0  0.72497  0.08908  0.23013  1.0000
  C   C37       1.0  0.45065  0.12172  0.32831  1.0000
  C   C38       1.0  0.41759  0.11408  0.29302  1.0000
  C   C39       1.0  0.43606  0.11826  0.26594  1.0000
  H   H25       1.0  0.43877  0.11883  0.19921  1.0000
  H   H26       1.0  0.40765  0.11156  0.24455  1.0000
  C   C40       1.0  0.46776  0.12083  0.05771  1.0000
  H   H27       1.0  0.45609  0.10632  0.07322  1.0000
  H   H28       1.0  0.46445  0.13145  0.08526  1.0000
  H   H29       1.0  0.48094  0.12275  0.08859  1.0000
  C   C41       1.0  0.46992  0.12620  0.29311  1.0000
  H   H30       1.0  0.47380  0.13676  0.23958  1.0000
  H   H31       1.0  0.46817  0.11302  0.26255  1.0000
  C   C42       1.0  0.69010  0.55683  0.32824  1.0000
  C   C43       1.0  0.71554  0.58987  0.29294  1.0000
  C   C44       1.0  0.70124  0.57142  0.26586  1.0000
  H   H32       1.0  0.69908  0.56871  0.19914  1.0000
  H   H33       1.0  0.72297  0.59981  0.24446  1.0000
  C   C45       1.0  0.67211  0.53973  0.05765  1.0000
  H   H34       1.0  0.66929  0.55141  0.07315  1.0000
  H   H35       1.0  0.68604  0.54302  0.08519  1.0000
  H   H36       1.0  0.66085  0.52655  0.08852  1.0000
  C   C46       1.0  0.67527  0.53758  0.29307  1.0000
  H   H37       1.0  0.68190  0.53367  0.23944  1.0000
  H   H38       1.0  0.66384  0.53936  0.26262  1.0000
  C   C47       1.0  0.88576  0.31736  0.32833  1.0000
  C   C48       1.0  0.89338  0.29192  0.29305  1.0000
  C   C49       1.0  0.88920  0.30621  0.26596  1.0000
  H   H39       1.0  0.88862  0.30834  0.19923  1.0000
  H   H40       1.0  0.89588  0.28448  0.24457  1.0000
  C   C50       1.0  0.88675  0.33542  0.05771  1.0000
  H   H41       1.0  0.90125  0.33824  0.07318  1.0000
  H   H42       1.0  0.87611  0.32149  0.08530  1.0000
  H   H43       1.0  0.88484  0.34669  0.08859  1.0000
  C   C51       1.0  0.88129  0.33215  0.29314  1.0000
  H   H44       1.0  0.87074  0.32549  0.23956  1.0000
  H   H45       1.0  0.89448  0.34359  0.26263  1.0000
  C   C52       1.0  0.56704  0.87555  0.32825  1.0000
  C   C53       1.0  0.60008  0.88312  0.29297  1.0000
  C   C54       1.0  0.58162  0.87896  0.26588  1.0000
  H   H46       1.0  0.57890  0.87838  0.19915  1.0000
  H   H47       1.0  0.61001  0.88560  0.24449  1.0000
  C   C55       1.0  0.54999  0.87660  0.05763  1.0000
  H   H48       1.0  0.56169  0.89110  0.07309  1.0000
  H   H49       1.0  0.55326  0.86595  0.08520  1.0000
  H   H50       1.0  0.53682  0.87471  0.08851  1.0000
  C   C56       1.0  0.54779  0.87112  0.29307  1.0000
  H   H51       1.0  0.54389  0.86059  0.23941  1.0000
  H   H52       1.0  0.54956  0.88433  0.26267  1.0000
  C   C57       1.0  0.32756  0.44043  0.32828  1.0000
  C   C58       1.0  0.30210  0.40739  0.29302  1.0000
  C   C59       1.0  0.31638  0.42586  0.26592  1.0000
  H   H53       1.0  0.31849  0.42858  0.19919  1.0000
  H   H54       1.0  0.29464  0.39747  0.24455  1.0000
  C   C60       1.0  0.34573  0.45746  0.05765  1.0000
  H   H55       1.0  0.34853  0.44577  0.07310  1.0000
  H   H56       1.0  0.33182  0.45420  0.08526  1.0000
  H   H57       1.0  0.35701  0.47063  0.08853  1.0000
  C   C61       1.0  0.34234  0.45970  0.29309  1.0000
  H   H58       1.0  0.33566  0.46358  0.23951  1.0000
  H   H59       1.0  0.35379  0.45797  0.26257  1.0000
  C   C62       1.0  0.13189  0.67989  0.32828  1.0000
  C   C63       1.0  0.12432  0.70535  0.29299  1.0000
  C   C64       1.0  0.12848  0.69106  0.26591  1.0000
  H   H60       1.0  0.12906  0.68892  0.19918  1.0000
  H   H61       1.0  0.12183  0.71280  0.24451  1.0000
  C   C65       1.0  0.13085  0.66180  0.05767  1.0000
  H   H62       1.0  0.11636  0.65899  0.07314  1.0000
  H   H63       1.0  0.14150  0.67571  0.08524  1.0000
  H   H64       1.0  0.13274  0.65052  0.08855  1.0000
  C   C66       1.0  0.13635  0.66508  0.29311  1.0000
  H   H65       1.0  0.14689  0.67173  0.23950  1.0000
  H   H66       1.0  0.12315  0.65364  0.26264  1.0000
  C   C67       1.0  0.25031  0.51406  0.33756  1.0000
  C   C68       1.0  0.27314  0.50371  0.29158  1.0000
  C   C69       1.0  0.25709  0.50587  0.27393  1.0000
  H   H67       1.0  0.25044  0.50146  0.21340  1.0000
  H   H68       1.0  0.27756  0.49792  0.24272  1.0000
  C   C70       1.0  0.23999  0.52757  0.01537  1.0000
  H   H69       1.0  0.24368  0.51793  0.05068  1.0000
  H   H70       1.0  0.23597  0.53492  0.06476  1.0000
  C   C71       1.0  0.23335  0.51635  0.31694  1.0000
  H   H71       1.0  0.22792  0.51119  0.24970  1.0000
  H   H72       1.0  0.23813  0.53174  0.31887  1.0000
  C   C72       1.0  0.49346  0.72474  0.33763  1.0000
  C   C73       1.0  0.50383  0.75793  0.29174  1.0000
  C   C74       1.0  0.50167  0.73973  0.27404  1.0000
  H   H73       1.0  0.50607  0.73748  0.21351  1.0000
  H   H74       1.0  0.50963  0.76815  0.24291  1.0000
  C   C75       1.0  0.47994  0.70090  0.01545  1.0000
  H   H75       1.0  0.48957  0.71423  0.05081  1.0000
  H   H76       1.0  0.47258  0.68952  0.06481  1.0000
  C   C76       1.0  0.49117  0.70550  0.31696  1.0000
  H   H77       1.0  0.49632  0.70522  0.24971  1.0000
  H   H78       1.0  0.47577  0.69489  0.31886  1.0000
  C   C77       1.0  0.28273  0.75715  0.33748  1.0000
  C   C78       1.0  0.24953  0.73433  0.29176  1.0000
  C   C79       1.0  0.26773  0.75036  0.27396  1.0000
  H   H79       1.0  0.26996  0.75699  0.21339  1.0000
  H   H80       1.0  0.23930  0.72990  0.24297  1.0000
  C   C80       1.0  0.30644  0.76732  0.01623  1.0000
  H   H81       1.0  0.29308  0.76338  0.05189  1.0000
  H   H82       1.0  0.31786  0.77138  0.06539  1.0000
  C   C81       1.0  0.30197  0.77410  0.31674  1.0000
  H   H83       1.0  0.30224  0.77953  0.24948  1.0000
  H   H84       1.0  0.31258  0.76932  0.31861  1.0000
  C   C82       1.0  0.76734  0.48328  0.33752  1.0000
  C   C83       1.0  0.74452  0.49367  0.29186  1.0000
  C   C84       1.0  0.76055  0.49150  0.27402  1.0000
  H   H85       1.0  0.76718  0.49590  0.21345  1.0000
  H   H86       1.0  0.74009  0.49947  0.24309  1.0000
  C   C85       1.0  0.77751  0.46973  0.01632  1.0000
  H   H87       1.0  0.77355  0.47913  0.05203  1.0000
  H   H88       1.0  0.78157  0.46236  0.06545  1.0000
  C   C86       1.0  0.78429  0.48100  0.31674  1.0000
  H   H89       1.0  0.78971  0.48615  0.24948  1.0000
  H   H90       1.0  0.77950  0.46560  0.31861  1.0000
  C   C87       1.0  0.52426  0.27257  0.33760  1.0000
  C   C88       1.0  0.51390  0.23939  0.29174  1.0000
  C   C89       1.0  0.51606  0.25758  0.27402  1.0000
  H   H91       1.0  0.51165  0.25982  0.21348  1.0000
  H   H92       1.0  0.50811  0.22916  0.24291  1.0000
  C   C90       1.0  0.53777  0.29639  0.01555  1.0000
  H   H93       1.0  0.52817  0.28306  0.05095  1.0000
  H   H94       1.0  0.54512  0.30778  0.06488  1.0000
  C   C91       1.0  0.52654  0.29181  0.31691  1.0000
  H   H95       1.0  0.52139  0.29208  0.24966  1.0000
  H   H96       1.0  0.54194  0.30242  0.31882  1.0000
  C   C92       1.0  0.73492  0.24013  0.33759  1.0000
  C   C93       1.0  0.76810  0.26295  0.29169  1.0000
  C   C94       1.0  0.74990  0.24691  0.27399  1.0000
  H   H97       1.0  0.74766  0.24026  0.21345  1.0000
  H   H98       1.0  0.77832  0.26737  0.24285  1.0000
  C   C95       1.0  0.71108  0.22981  0.01544  1.0000
  H   H99       1.0  0.72442  0.23352  0.05080  1.0000
  H   H100      1.0  0.69970  0.22577  0.06480  1.0000
  C   C96       1.0  0.71567  0.22317  0.31692  1.0000
  H   H101      1.0  0.71540  0.21774  0.24968  1.0000
  H   H102      1.0  0.70506  0.22795  0.31885  1.0000
  C   C97       1.0  0.18216  0.57342  0.22878  1.0000
  C   C98       1.0  0.18496  0.59210  0.21103  1.0000
  C   C99       1.0  0.17716  0.60043  0.26890  1.0000
  N   N19       1.0  0.19485  0.60129  0.13611  1.0000
  C   C100      1.0  0.20205  0.59359  0.07778  1.0000
  C   C101      1.0  0.19898  0.57498  0.09396  1.0000
  N   N20       1.0  0.18924  0.56575  0.16900  1.0000
  H   H103      1.0  0.20925  0.60116  0.02238  1.0000
  N   N21       1.0  0.20585  0.56638  0.03332  1.0000
  H   H104      1.0  0.21445  0.56239  0.06707  1.0000
  H   H105      1.0  0.18151  0.53784  0.03268  1.0000
  C   C102      1.0  0.17845  0.61934  0.25153  1.0000
  H   H106      1.0  0.16371  0.61641  0.24112  1.0000
  H   H107      1.0  0.18655  0.62626  0.19097  1.0000
  C   C103      1.0  0.43407  0.59719  0.22878  1.0000
  C   C104      1.0  0.41540  0.58130  0.21102  1.0000
  C   C105      1.0  0.40707  0.56517  0.26891  1.0000
  N   N22       1.0  0.40621  0.58199  0.13607  1.0000
  C   C106      1.0  0.41391  0.59689  0.07772  1.0000
  C   C107      1.0  0.43252  0.61244  0.09390  1.0000
  N   N23       1.0  0.44174  0.61194  0.16897  1.0000
  H   H108      1.0  0.40634  0.59650  0.02228  1.0000
  N   N24       1.0  0.44112  0.62790  0.03321  1.0000
  H   H109      1.0  0.44511  0.64049  0.06693  1.0000
  H   H110      1.0  0.46965  0.63208  0.03254  1.0000
  C   C108      1.0  0.38817  0.54755  0.25154  1.0000
  H   H111      1.0  0.39109  0.53573  0.24125  1.0000
  H   H112      1.0  0.38125  0.54871  0.19092  1.0000
  C   C109      1.0  0.41029  0.82530  0.22884  1.0000
  C   C110      1.0  0.42618  0.82251  0.21110  1.0000
  C   C111      1.0  0.44231  0.83032  0.26900  1.0000
  N   N25       1.0  0.42550  0.81264  0.13614  1.0000
  C   C112      1.0  0.41060  0.80544  0.07775  1.0000
  C   C113      1.0  0.39505  0.80851  0.09390  1.0000
  N   N26       1.0  0.39555  0.81823  0.16899  1.0000
  H   H113      1.0  0.41100  0.79827  0.02231  1.0000
  N   N27       1.0  0.37960  0.80165  0.03318  1.0000
  H   H114      1.0  0.36700  0.79306  0.06686  1.0000
  H   H115      1.0  0.37545  0.82602  0.03246  1.0000
  C   C114      1.0  0.45993  0.82904  0.25162  1.0000
  H   H116      1.0  0.47175  0.84379  0.24130  1.0000
  H   H117      1.0  0.45877  0.82096  0.19102  1.0000
  C   C115      1.0  0.83550  0.42386  0.22886  1.0000
  C   C116      1.0  0.83271  0.40518  0.21115  1.0000
  C   C117      1.0  0.84052  0.39686  0.26908  1.0000
  N   N28       1.0  0.82284  0.39599  0.13619  1.0000
  C   C118      1.0  0.81564  0.40368  0.07780  1.0000
  C   C119      1.0  0.81871  0.42230  0.09391  1.0000
  N   N29       1.0  0.82843  0.43153  0.16899  1.0000
  H   H118      1.0  0.80849  0.39612  0.02230  1.0000
  N   N30       1.0  0.81186  0.43090  0.03315  1.0000
  H   H119      1.0  0.80327  0.43491  0.06679  1.0000
  H   H120      1.0  0.83623  0.45942  0.03245  1.0000
  C   C120      1.0  0.83925  0.37797  0.25171  1.0000
  H   H121      1.0  0.85400  0.38091  0.24142  1.0000
  H   H122      1.0  0.83117  0.37105  0.19110  1.0000
  C   C121      1.0  0.58364  0.40010  0.22875  1.0000
  C   C122      1.0  0.60232  0.41598  0.21102  1.0000
  C   C123      1.0  0.61064  0.43211  0.26888  1.0000
  N   N31       1.0  0.61151  0.41528  0.13610  1.0000
  C   C124      1.0  0.60382  0.40037  0.07778  1.0000
  C   C125      1.0  0.58520  0.38483  0.09393  1.0000
  N   N32       1.0  0.57597  0.38534  0.16897  1.0000
  H   H123      1.0  0.61138  0.40077  0.02232  1.0000
  N   N33       1.0  0.57661  0.36936  0.03328  1.0000
  H   H124      1.0  0.57262  0.35678  0.06701  1.0000
  H   H125      1.0  0.54806  0.36515  0.03269  1.0000
  C   C126      1.0  0.62955  0.44973  0.25152  1.0000
  H   H126      1.0  0.62662  0.46154  0.24110  1.0000
  H   H127      1.0  0.63648  0.44855  0.19098  1.0000
  C   C127      1.0  0.60739  0.17197  0.22870  1.0000
  C   C128      1.0  0.59151  0.17476  0.21096  1.0000
  C   C129      1.0  0.57537  0.16695  0.26883  1.0000
  N   N34       1.0  0.59221  0.18465  0.13604  1.0000
  C   C130      1.0  0.60711  0.19186  0.07772  1.0000
  C   C131      1.0  0.62266  0.18879  0.09388  1.0000
  N   N35       1.0  0.62215  0.17905  0.16893  1.0000
  H   H128      1.0  0.60672  0.19904  0.02228  1.0000
  N   N36       1.0  0.63813  0.19567  0.03325  1.0000
  H   H129      1.0  0.65071  0.20427  0.06699  1.0000
  H   H130      1.0  0.64235  0.17134  0.03269  1.0000
  C   C132      1.0  0.55776  0.16825  0.25148  1.0000
  H   H131      1.0  0.54594  0.15350  0.24111  1.0000
  H   H132      1.0  0.55893  0.17634  0.19091  1.0000
  C   C133      1.0  0.98694  0.25829  0.38302  1.0000
  C   C134      1.0  0.01882  0.26926  0.31830  1.0000
  C   C135      1.0  0.99871  0.25736  0.31551  1.0000
  H   H133      1.0  0.99273  0.24802  0.26327  1.0000
  H   H134      1.0  0.02687  0.26816  0.26813  1.0000
  C   C136      1.0  0.97143  0.26822  0.04704  1.0000
  H   H135      1.0  0.98177  0.26486  0.07767  1.0000
  H   H136      1.0  0.96130  0.25598  0.00647  1.0000
  H   H137      1.0  0.96339  0.27035  0.10016  1.0000
  C   C137      1.0  0.96565  0.24565  0.37880  1.0000
  H   H138      1.0  0.96084  0.23766  0.44145  1.0000
  H   H139      1.0  0.96142  0.23502  0.32519  1.0000
  C   C138      1.0  0.74917  0.71705  0.38292  1.0000
  C   C139      1.0  0.73819  0.73796  0.31818  1.0000
  C   C140      1.0  0.75009  0.72975  0.31538  1.0000
  H   H140      1.0  0.75943  0.73311  0.26313  1.0000
  H   H141      1.0  0.73929  0.74711  0.26801  1.0000
  C   C141      1.0  0.73925  0.69163  0.04698  1.0000
  H   H142      1.0  0.74262  0.70533  0.07759  1.0000
  H   H143      1.0  0.75150  0.69375  0.00640  1.0000
  H   H144      1.0  0.73713  0.68147  0.10011  1.0000
  C   C142      1.0  0.76181  0.70840  0.37870  1.0000
  H   H145      1.0  0.76979  0.71158  0.44134  1.0000
  H   H146      1.0  0.77243  0.71480  0.32508  1.0000
  C   C143      1.0  0.29041  0.02053  0.38298  1.0000
  C   C144      1.0  0.26950  0.98864  0.31824  1.0000
  C   C145      1.0  0.27771  0.00875  0.31546  1.0000
  H   H147      1.0  0.27434  0.01473  0.26321  1.0000
  H   H148      1.0  0.26035  0.98060  0.26807  1.0000
  C   C146      1.0  0.31584  0.03603  0.04702  1.0000
  H   H149      1.0  0.30214  0.02569  0.07764  1.0000
  H   H150      1.0  0.31372  0.04616  0.00645  1.0000
  H   H151      1.0  0.32601  0.04408  0.10015  1.0000
  C   C147      1.0  0.29906  0.04182  0.37876  1.0000
  H   H152      1.0  0.29587  0.04662  0.44141  1.0000
  H   H153      1.0  0.29265  0.04604  0.32516  1.0000
  C   C148      1.0  0.03074  0.73895  0.38288  1.0000
  C   C149      1.0  0.99886  0.72797  0.31814  1.0000
  C   C150      1.0  0.01897  0.73987  0.31535  1.0000
  H   H154      1.0  0.02495  0.74921  0.26310  1.0000
  H   H155      1.0  0.99081  0.72907  0.26797  1.0000
  C   C151      1.0  0.04624  0.72904  0.04698  1.0000
  H   H156      1.0  0.03590  0.73240  0.07758  1.0000
  H   H157      1.0  0.05637  0.74129  0.00640  1.0000
  H   H158      1.0  0.05428  0.72692  0.10011  1.0000
  C   C152      1.0  0.05203  0.75159  0.37867  1.0000
  H   H159      1.0  0.05683  0.75958  0.44131  1.0000
  H   H160      1.0  0.05625  0.76222  0.32506  1.0000
  C   C153      1.0  0.26852  0.28021  0.38283  1.0000
  C   C154      1.0  0.27951  0.25931  0.31806  1.0000
  C   C155      1.0  0.26760  0.26752  0.31529  1.0000
  H   H161      1.0  0.25826  0.26415  0.26304  1.0000
  H   H162      1.0  0.27841  0.25016  0.26788  1.0000
  C   C156      1.0  0.27844  0.30561  0.04693  1.0000
  H   H163      1.0  0.27508  0.29191  0.07753  1.0000
  H   H164      1.0  0.26619  0.30349  0.00636  1.0000
  H   H165      1.0  0.28057  0.31578  0.10007  1.0000
  C   C157      1.0  0.25588  0.28885  0.37864  1.0000
  H   H166      1.0  0.24789  0.28566  0.44128  1.0000
  H   H167      1.0  0.24525  0.28245  0.32503  1.0000
  C   C158      1.0  0.72726  0.97673  0.38286  1.0000
  C   C159      1.0  0.74816  0.00861  0.31805  1.0000
  C   C160      1.0  0.73995  0.98850  0.31529  1.0000
  H   H168      1.0  0.74330  0.98252  0.26305  1.0000
  H   H169      1.0  0.75730  0.01665  0.26785  1.0000
  C   C161      1.0  0.70189  0.96127  0.04701  1.0000
  H   H170      1.0  0.71559  0.97162  0.07758  1.0000
  H   H171      1.0  0.70401  0.95114  0.00645  1.0000
  H   H172      1.0  0.69173  0.95323  0.10018  1.0000
  C   C162      1.0  0.71861  0.95544  0.37868  1.0000
  H   H173      1.0  0.72180  0.95065  0.44133  1.0000
  H   H174      1.0  0.72501  0.95122  0.32507  1.0000
  C   C163      1.0  0.17811  0.30888  0.31721  1.0000
  C   C164      1.0  0.15082  0.30871  0.24133  1.0000
  C   C165      1.0  0.16980  0.31217  0.24100  1.0000
  H   H175      1.0  0.17785  0.31789  0.18461  1.0000
  H   H176      1.0  0.14591  0.31193  0.18481  1.0000
  H   H177      1.0  0.18218  0.31332  0.01312  1.0000
  H   H178      1.0  0.19041  0.29816  0.05598  1.0000
  C   C166      1.0  0.19897  0.31479  0.31009  1.0000
  H   H179      1.0  0.20641  0.32992  0.28910  1.0000
  H   H180      1.0  0.20054  0.30640  0.25646  1.0000
  C   C167      1.0  0.69860  0.85765  0.31719  1.0000
  C   C168      1.0  0.69877  0.83054  0.24131  1.0000
  C   C169      1.0  0.69531  0.84605  0.24099  1.0000
  H   H181      1.0  0.68961  0.84839  0.18457  1.0000
  H   H182      1.0  0.69555  0.82241  0.18479  1.0000
  H   H183      1.0  0.69413  0.85728  0.01308  1.0000
  H   H184      1.0  0.70931  0.88067  0.05596  1.0000
  C   C170      1.0  0.69269  0.87260  0.31007  1.0000
  H   H185      1.0  0.67757  0.86492  0.28901  1.0000
  H   H186      1.0  0.70109  0.88257  0.25648  1.0000
  C   C171      1.0  0.14983  0.82936  0.31719  1.0000
  C   C172      1.0  0.17693  0.85666  0.24130  1.0000
  C   C173      1.0  0.16142  0.83768  0.24098  1.0000
  H   H187      1.0  0.15909  0.82964  0.18454  1.0000
  H   H188      1.0  0.18506  0.86157  0.18477  1.0000
  H   H189      1.0  0.15023  0.82524  0.01302  1.0000
  H   H190      1.0  0.12685  0.81701  0.05598  1.0000
  C   C174      1.0  0.13488  0.80850  0.31004  1.0000
  H   H191      1.0  0.14256  0.80106  0.28901  1.0000
  H   H192      1.0  0.12492  0.80694  0.25644  1.0000
  C   C175      1.0  0.83957  0.68837  0.31717  1.0000
  C   C176      1.0  0.86687  0.68857  0.24128  1.0000
  C   C177      1.0  0.84789  0.68510  0.24096  1.0000
  H   H193      1.0  0.83985  0.67939  0.18453  1.0000
  H   H194      1.0  0.87178  0.68536  0.18475  1.0000
  H   H195      1.0  0.83545  0.68384  0.01300  1.0000
  H   H196      1.0  0.82722  0.69900  0.05597  1.0000
  C   C178      1.0  0.81871  0.68246  0.31003  1.0000
  H   H197      1.0  0.81128  0.66734  0.28898  1.0000
  H   H198      1.0  0.81715  0.69086  0.25644  1.0000
  C   C179      1.0  0.31912  0.13963  0.31723  1.0000
  C   C180      1.0  0.31892  0.16672  0.24130  1.0000
  C   C181      1.0  0.32239  0.15122  0.24099  1.0000
  H   H199      1.0  0.32809  0.14887  0.18456  1.0000
  H   H200      1.0  0.32212  0.17484  0.18473  1.0000
  H   H201      1.0  0.32362  0.14004  0.01306  1.0000
  H   H202      1.0  0.30847  0.11665  0.05602  1.0000
  C   C182      1.0  0.32501  0.12467  0.31008  1.0000
  H   H203      1.0  0.34013  0.13234  0.28902  1.0000
  H   H204      1.0  0.31661  0.11471  0.25649  1.0000
  C   C183      1.0  0.86783  0.16791  0.31721  1.0000
  C   C184      1.0  0.84075  0.14061  0.24124  1.0000
  C   C185      1.0  0.85624  0.15960  0.24098  1.0000
  H   H205      1.0  0.85860  0.16764  0.18454  1.0000
  H   H206      1.0  0.83263  0.13570  0.18469  1.0000
  H   H207      1.0  0.86742  0.17199  0.01304  1.0000
  H   H208      1.0  0.89081  0.18022  0.05601  1.0000
  C   C186      1.0  0.88280  0.18876  0.31009  1.0000
  H   H209      1.0  0.87513  0.19621  0.28903  1.0000
  H   H210      1.0  0.89276  0.19032  0.25650  1.0000
  C   C187      1.0  0.16733  0.49074  0.33152  1.0000
  N   N37       1.0  0.16802  0.50799  0.33155  1.0000
  C   C188      1.0  0.18468  0.52471  0.34825  1.0000
  N   N38       1.0  0.20094  0.52385  0.36441  1.0000
  C   C189      1.0  0.20071  0.50676  0.36379  1.0000
  N   N39       1.0  0.18382  0.49036  0.34657  1.0000
  N   N40       1.0  0.18590  0.54294  0.34497  1.0000
  H   H211      1.0  0.19064  0.54937  0.40605  1.0000
  N   N41       1.0  0.21758  0.50596  0.38250  1.0000
  H   H212      1.0  0.21427  0.49180  0.38504  1.0000
  N   N42       1.0  0.15038  0.47353  0.30922  1.0000
  H   H213      1.0  0.13966  0.47632  0.29076  1.0000
  C   C190      1.0  0.51674  0.66506  0.33139  1.0000
  N   N43       1.0  0.49948  0.64849  0.33145  1.0000
  C   C191      1.0  0.48277  0.64845  0.34816  1.0000
  N   N44       1.0  0.48364  0.66556  0.36435  1.0000
  C   C192      1.0  0.50074  0.68242  0.36374  1.0000
  N   N45       1.0  0.51713  0.68193  0.34649  1.0000
  N   N46       1.0  0.46454  0.63143  0.34494  1.0000
  H   H214      1.0  0.45812  0.62976  0.40601  1.0000
  N   N47       1.0  0.50154  0.70009  0.38250  1.0000
  H   H215      1.0  0.51571  0.71094  0.38505  1.0000
  N   N48       1.0  0.53395  0.66530  0.30913  1.0000
  H   H216      1.0  0.53114  0.65178  0.29067  1.0000
  C   C193      1.0  0.34243  0.84012  0.33127  1.0000
  N   N49       1.0  0.35899  0.83942  0.33136  1.0000
  C   C194      1.0  0.35903  0.82275  0.34809  1.0000
  N   N50       1.0  0.34190  0.80650  0.36421  1.0000
  C   C195      1.0  0.32505  0.80675  0.36353  1.0000
  N   N51       1.0  0.32555  0.82364  0.34629  1.0000
  N   N52       1.0  0.37604  0.82153  0.34489  1.0000
  H   H217      1.0  0.37770  0.81677  0.40597  1.0000
  N   N53       1.0  0.30737  0.78988  0.38226  1.0000
  H   H218      1.0  0.29653  0.79321  0.38479  1.0000
  N   N54       1.0  0.34219  0.85708  0.30897  1.0000
  H   H219      1.0  0.35571  0.86779  0.29048  1.0000
  C   C196      1.0  0.85030  0.50654  0.33119  1.0000
  N   N55       1.0  0.84961  0.48928  0.33130  1.0000
  C   C197      1.0  0.83293  0.47258  0.34802  1.0000
  N   N56       1.0  0.81669  0.47346  0.36416  1.0000
  C   C198      1.0  0.81694  0.49056  0.36349  1.0000
  N   N57       1.0  0.83383  0.50694  0.34624  1.0000
  N   N58       1.0  0.83171  0.45434  0.34486  1.0000
  H   H220      1.0  0.82696  0.44792  0.40595  1.0000
  N   N59       1.0  0.80007  0.49137  0.38224  1.0000
  H   H221      1.0  0.80340  0.50554  0.38478  1.0000
  N   N60       1.0  0.86728  0.52374  0.30895  1.0000
  H   H222      1.0  0.87799  0.52093  0.29048  1.0000
  C   C199      1.0  0.50095  0.33224  0.33138  1.0000
  N   N61       1.0  0.51821  0.34880  0.33142  1.0000
  C   C200      1.0  0.53492  0.34885  0.34815  1.0000
  N   N62       1.0  0.53405  0.33174  0.36432  1.0000
  C   C201      1.0  0.51696  0.31487  0.36370  1.0000
  N   N63       1.0  0.50057  0.31537  0.34645  1.0000
  N   N64       1.0  0.55315  0.36587  0.34489  1.0000
  H   H223      1.0  0.55957  0.36755  0.40598  1.0000
  N   N65       1.0  0.51616  0.29720  0.38245  1.0000
  H   H224      1.0  0.50199  0.28636  0.38499  1.0000
  N   N66       1.0  0.48374  0.33198  0.30908  1.0000
  H   H225      1.0  0.48654  0.34550  0.29060  1.0000
  C   C202      1.0  0.67526  0.15715  0.33135  1.0000
  N   N67       1.0  0.65869  0.15784  0.33140  1.0000
  C   C203      1.0  0.65864  0.17450  0.34811  1.0000
  N   N68       1.0  0.67575  0.19075  0.36431  1.0000
  C   C204      1.0  0.69261  0.19052  0.36371  1.0000
  N   N69       1.0  0.69213  0.17364  0.34645  1.0000
  N   N70       1.0  0.64162  0.17571  0.34488  1.0000
  H   H226      1.0  0.63994  0.18045  0.40597  1.0000
  N   N71       1.0  0.71028  0.20740  0.38246  1.0000
  H   H227      1.0  0.72113  0.20408  0.38501  1.0000
  N   N72       1.0  0.67551  0.14019  0.30909  1.0000
  H   H228      1.0  0.66199  0.12947  0.29064  1.0000
  C   C205      1.0  0.50137  0.15252  0.34786  1.0000
  N   N73       1.0  0.51980  0.15611  0.34285  1.0000
  C   C206      1.0  0.53476  0.17425  0.33043  1.0000
  N   N74       1.0  0.53108  0.18901  0.32430  1.0000
  C   C207      1.0  0.51283  0.18590  0.33088  1.0000
  N   N75       1.0  0.49807  0.16756  0.34250  1.0000
  N   N76       1.0  0.55371  0.17735  0.32833  1.0000
  H   H229      1.0  0.56355  0.19187  0.32839  1.0000
  N   N77       1.0  0.50969  0.20166  0.32139  1.0000
  H   H230      1.0  0.49514  0.19678  0.31871  1.0000
  N   N78       1.0  0.48586  0.13356  0.35973  1.0000
  H   H231      1.0  0.49080  0.12399  0.36651  1.0000
  C   C208      1.0  0.67015  0.50614  0.34792  1.0000
  N   N79       1.0  0.65533  0.48770  0.34287  1.0000
  C   C209      1.0  0.65853  0.47275  0.33051  1.0000
  N   N80       1.0  0.67699  0.47646  0.32450  1.0000
  C   C210      1.0  0.69211  0.49472  0.33113  1.0000
  N   N81       1.0  0.68851  0.50947  0.34267  1.0000
  N   N82       1.0  0.64270  0.45380  0.32839  1.0000
  H   H232      1.0  0.64739  0.44396  0.32848  1.0000
  N   N83       1.0  0.71102  0.49789  0.32169  1.0000
  H   H233      1.0  0.72068  0.51244  0.31903  1.0000
  N   N84       1.0  0.66667  0.52163  0.35966  1.0000
  H   H234      1.0  0.65216  0.51667  0.36623  1.0000
  C   C211      1.0  0.85497  0.33728  0.34786  1.0000
  N   N85       1.0  0.85138  0.35212  0.34293  1.0000
  C   C212      1.0  0.83324  0.34895  0.33052  1.0000
  N   N86       1.0  0.81848  0.33050  0.32432  1.0000
  C   C213      1.0  0.82159  0.31536  0.33082  1.0000
  N   N87       1.0  0.83993  0.31894  0.34244  1.0000
  N   N88       1.0  0.83013  0.36479  0.32850  1.0000
  H   H235      1.0  0.81562  0.36012  0.32854  1.0000
  N   N89       1.0  0.80583  0.29647  0.32129  1.0000
  H   H236      1.0  0.81070  0.28679  0.31859  1.0000
  N   N90       1.0  0.87393  0.34073  0.35975  1.0000
  H   H237      1.0  0.88349  0.35523  0.36657  1.0000
  C   C214      1.0  0.51634  0.84479  0.34782  1.0000
  N   N91       1.0  0.49791  0.84119  0.34285  1.0000
  C   C215      1.0  0.48295  0.82305  0.33043  1.0000
  N   N92       1.0  0.48664  0.80829  0.32428  1.0000
  C   C216      1.0  0.50490  0.81141  0.33083  1.0000
  N   N93       1.0  0.51965  0.82975  0.34243  1.0000
  N   N94       1.0  0.46399  0.81993  0.32841  1.0000
  H   H238      1.0  0.45416  0.80541  0.32845  1.0000
  N   N95       1.0  0.50804  0.79566  0.32135  1.0000
  H   H239      1.0  0.52259  0.80054  0.31865  1.0000
  N   N96       1.0  0.53184  0.86376  0.35967  1.0000
  H   H240      1.0  0.52689  0.87331  0.36640  1.0000
  C   C217      1.0  0.34746  0.49116  0.34775  1.0000
  N   N97       1.0  0.36231  0.50958  0.34282  1.0000
  C   C218      1.0  0.35914  0.52456  0.33035  1.0000
  N   N98       1.0  0.34070  0.52088  0.32412  1.0000
  C   C219      1.0  0.32555  0.50264  0.33063  1.0000
  N   N99       1.0  0.32912  0.48787  0.34230  1.0000
  N   N100      1.0  0.37499  0.54350  0.32832  1.0000
  H   H241      1.0  0.37032  0.55335  0.32834  1.0000
  N   N101      1.0  0.30666  0.49951  0.32110  1.0000
  H   H242      1.0  0.29699  0.48496  0.31839  1.0000
  N   N102      1.0  0.35090  0.47564  0.35973  1.0000
  H   H243      1.0  0.36539  0.48058  0.36666  1.0000
  C   C220      1.0  0.16268  0.65998  0.34789  1.0000
  N   N103      1.0  0.16629  0.64515  0.34287  1.0000
  C   C221      1.0  0.18443  0.64833  0.33047  1.0000
  N   N104      1.0  0.19919  0.66679  0.32439  1.0000
  C   C222      1.0  0.19606  0.68192  0.33099  1.0000
  N   N105      1.0  0.17772  0.67833  0.34257  1.0000
  N   N106      1.0  0.18755  0.63250  0.32837  1.0000
  H   H244      1.0  0.20207  0.63718  0.32844  1.0000
  N   N107      1.0  0.21181  0.70082  0.32153  1.0000
  H   H245      1.0  0.20692  0.71049  0.31884  1.0000
  N   N108      1.0  0.14371  0.65650  0.35973  1.0000
  H   H246      1.0  0.13416  0.64200  0.36645  1.0000
  C   C223      1.0  0.10569  0.34638  0.29640  1.0000
  N   N109      1.0  0.11465  0.33637  0.27436  1.0000
  C   C224      1.0  0.10435  0.31706  0.26100  1.0000
  N   N110      1.0  0.08494  0.30757  0.27212  1.0000
  C   C225      1.0  0.07574  0.31734  0.29467  1.0000
  N   N111      1.0  0.08627  0.33672  0.30710  1.0000
  N   N112      1.0  0.11450  0.30735  0.24325  1.0000
  H   H247      1.0  0.10772  0.29713  0.19464  1.0000
  N   N113      1.0  0.05557  0.30718  0.30602  1.0000
  H   H248      1.0  0.05058  0.31675  0.31005  1.0000
  N   N114      1.0  0.11614  0.36620  0.31645  1.0000
  H   H249      1.0  0.13050  0.37057  0.32451  1.0000
  C   C226      1.0  0.66109  0.74774  0.29644  1.0000
  N   N115      1.0  0.67111  0.76671  0.27434  1.0000
  C   C227      1.0  0.69042  0.77572  0.26091  1.0000
  N   N116      1.0  0.69989  0.76578  0.27205  1.0000
  C   C228      1.0  0.69013  0.74682  0.29462  1.0000
  N   N117      1.0  0.67075  0.73798  0.30710  1.0000
  N   N118      1.0  0.70012  0.79557  0.24322  1.0000
  H   H250      1.0  0.71036  0.79902  0.19465  1.0000
  N   N119      1.0  0.70028  0.73680  0.30596  1.0000
  H   H251      1.0  0.69071  0.72224  0.31000  1.0000
  N   N120      1.0  0.64128  0.73839  0.31645  1.0000
  H   H252      1.0  0.63690  0.74838  0.32447  1.0000
  C   C229      1.0  0.25973  0.90177  0.29629  1.0000
  N   N121      1.0  0.24076  0.89282  0.27426  1.0000
  C   C230      1.0  0.23175  0.90312  0.26094  1.0000
  N   N122      1.0  0.24169  0.92253  0.27206  1.0000
  C   C231      1.0  0.26065  0.93172  0.29460  1.0000
  N   N123      1.0  0.26950  0.92119  0.30700  1.0000
  N   N124      1.0  0.21190  0.89298  0.24323  1.0000
  H   H253      1.0  0.20845  0.89977  0.19467  1.0000
  N   N125      1.0  0.27067  0.95189  0.30596  1.0000
  H   H254      1.0  0.28523  0.95688  0.30999  1.0000
  N   N126      1.0  0.26909  0.89131  0.31632  1.0000
  H   H255      1.0  0.25910  0.87695  0.32435  1.0000
  C   C232      1.0  0.91197  0.65088  0.29636  1.0000
  N   N127      1.0  0.90303  0.66091  0.27426  1.0000
  C   C233      1.0  0.91333  0.68022  0.26084  1.0000
  N   N128      1.0  0.93275  0.68969  0.27198  1.0000
  C   C234      1.0  0.94193  0.67991  0.29456  1.0000
  N   N129      1.0  0.93139  0.66053  0.30703  1.0000
  N   N130      1.0  0.90320  0.68994  0.24317  1.0000
  H   H256      1.0  0.90999  0.70018  0.19466  1.0000
  N   N131      1.0  0.96210  0.69006  0.30591  1.0000
  H   H257      1.0  0.96708  0.68048  0.30996  1.0000
  N   N132      1.0  0.90150  0.63107  0.31637  1.0000
  H   H258      1.0  0.88714  0.62670  0.32441  1.0000
  C   C235      1.0  0.35660  0.24951  0.29628  1.0000
  N   N133      1.0  0.34657  0.23054  0.27425  1.0000
  C   C236      1.0  0.32727  0.22153  0.26087  1.0000
  N   N134      1.0  0.31779  0.23147  0.27194  1.0000
  C   C237      1.0  0.32757  0.25044  0.29448  1.0000
  N   N135      1.0  0.34695  0.25928  0.30694  1.0000
  N   N136      1.0  0.31755  0.20168  0.24315  1.0000
  H   H259      1.0  0.30732  0.19824  0.19458  1.0000
  N   N137      1.0  0.31742  0.26046  0.30581  1.0000
  H   H260      1.0  0.32699  0.27502  0.30984  1.0000
  N   N138      1.0  0.37641  0.25887  0.31636  1.0000
  H   H261      1.0  0.38078  0.24888  0.32448  1.0000
  C   C238      1.0  0.75796  0.09551  0.29635  1.0000
  N   N139      1.0  0.77693  0.10445  0.27423  1.0000
  C   C239      1.0  0.78593  0.09415  0.26075  1.0000
  N   N140      1.0  0.77599  0.07473  0.27187  1.0000
  C   C240      1.0  0.75703  0.06555  0.29446  1.0000
  N   N141      1.0  0.74819  0.07608  0.30698  1.0000
  N   N142      1.0  0.80579  0.10428  0.24307  1.0000
  H   H262      1.0  0.80923  0.09750  0.19452  1.0000
  N   N143      1.0  0.74701  0.04537  0.30579  1.0000
  H   H263      1.0  0.73245  0.04039  0.30983  1.0000
  N   N144      1.0  0.74862  0.10597  0.31641  1.0000
  H   H264      1.0  0.75861  0.12033  0.32450  1.0000
  C   C241      1.0  0.36094  0.10042  0.36093  1.0000
  N   N145      1.0  0.35194  0.11086  0.37168  1.0000
  C   C242      1.0  0.33252  0.10208  0.38168  1.0000
  N   N146      1.0  0.32212  0.08252  0.38003  1.0000
  C   C243      1.0  0.33071  0.07171  0.36873  1.0000
  N   N147      1.0  0.35014  0.08090  0.35858  1.0000
  N   N148      1.0  0.32347  0.11327  0.39101  1.0000
  H   H265      1.0  0.30908  0.10423  0.40406  1.0000
  N   N149      1.0  0.32025  0.05136  0.36513  1.0000
  H   H266      1.0  0.32277  0.04738  0.30376  1.0000
  N   N150      1.0  0.38080  0.10934  0.34201  1.0000
  H   H267      1.0  0.38612  0.12364  0.32689  1.0000
  C   C244      1.0  0.75854  0.64652  0.36076  1.0000
  N   N151      1.0  0.77797  0.65552  0.37156  1.0000
  C   C245      1.0  0.78861  0.67495  0.38160  1.0000
  N   N152      1.0  0.77945  0.68534  0.37997  1.0000
  C   C246      1.0  0.76005  0.67675  0.36864  1.0000
  N   N153      1.0  0.74980  0.65731  0.35846  1.0000
  N   N154      1.0  0.80886  0.68400  0.39096  1.0000
  H   H268      1.0  0.81420  0.69839  0.40402  1.0000
  N   N155      1.0  0.75015  0.68720  0.36507  1.0000
  H   H269      1.0  0.74364  0.68468  0.30372  1.0000
  N   N156      1.0  0.74761  0.62666  0.34189  1.0000
  H   H270      1.0  0.75659  0.62134  0.32675  1.0000
  C   C247      1.0  0.90704  0.24893  0.36097  1.0000
  N   N157      1.0  0.89661  0.22950  0.37171  1.0000
  C   C248      1.0  0.90539  0.21885  0.38171  1.0000
  N   N158      1.0  0.92494  0.22801  0.38007  1.0000
  C   C249      1.0  0.93576  0.24741  0.36877  1.0000
  N   N159      1.0  0.92657  0.25766  0.35862  1.0000
  N   N160      1.0  0.89419  0.19861  0.39102  1.0000
  H   H271      1.0  0.90323  0.19326  0.40408  1.0000
  N   N161      1.0  0.95611  0.25731  0.36517  1.0000
  H   H272      1.0  0.96009  0.26381  0.30381  1.0000
  N   N162      1.0  0.89813  0.25988  0.34205  1.0000
  H   H273      1.0  0.88382  0.25090  0.32693  1.0000
  C   C250      1.0  0.65674  0.89682  0.36083  1.0000
  N   N163      1.0  0.66575  0.88639  0.37163  1.0000
  C   C251      1.0  0.68517  0.89518  0.38166  1.0000
  N   N164      1.0  0.69556  0.91473  0.38002  1.0000
  C   C252      1.0  0.68697  0.92554  0.36868  1.0000
  N   N165      1.0  0.66752  0.91635  0.35851  1.0000
  N   N166      1.0  0.69423  0.88400  0.39100  1.0000
  H   H274      1.0  0.70862  0.89304  0.40406  1.0000
  N   N167      1.0  0.69741  0.94590  0.36509  1.0000
  H   H275      1.0  0.69488  0.94987  0.30374  1.0000
  N   N168      1.0  0.63687  0.88788  0.34197  1.0000
  H   H276      1.0  0.63156  0.87357  0.32689  1.0000
  C   C253      1.0  0.25913  0.35073  0.36097  1.0000
  N   N169      1.0  0.23970  0.34172  0.37172  1.0000
  C   C254      1.0  0.22906  0.32230  0.38169  1.0000
  N   N170      1.0  0.23823  0.31191  0.38001  1.0000
  C   C255      1.0  0.25763  0.32050  0.36869  1.0000
  N   N171      1.0  0.26787  0.33994  0.35857  1.0000
  N   N172      1.0  0.20882  0.31324  0.39101  1.0000
  H   H277      1.0  0.20348  0.29885  0.40402  1.0000
  N   N173      1.0  0.26753  0.31005  0.36505  1.0000
  H   H278      1.0  0.27403  0.31258  0.30369  1.0000
  N   N174      1.0  0.27007  0.37059  0.34208  1.0000
  H   H279      1.0  0.26109  0.37591  0.32705  1.0000
  C   C256      1.0  0.11065  0.74833  0.36083  1.0000
  N   N175      1.0  0.12107  0.76776  0.37162  1.0000
  C   C257      1.0  0.11229  0.77840  0.38162  1.0000
  N   N176      1.0  0.09274  0.76924  0.37996  1.0000
  C   C258      1.0  0.08192  0.74984  0.36865  1.0000
  N   N177      1.0  0.09112  0.73959  0.35850  1.0000
  N   N178      1.0  0.12348  0.79865  0.39096  1.0000
  H   H280      1.0  0.11443  0.80399  0.40400  1.0000
  N   N179      1.0  0.06157  0.73994  0.36506  1.0000
  H   H281      1.0  0.05759  0.73343  0.30370  1.0000
  N   N180      1.0  0.11958  0.73740  0.34200  1.0000
  H   H282      1.0  0.13389  0.74639  0.32697  1.0000
  C   C259      1.0  0.13479  0.43783  0.33896  1.0000
  C   C260      1.0  0.12445  0.40394  0.37128  1.0000
  C   C261      1.0  0.13091  0.42287  0.39992  1.0000
  H   H283      1.0  0.13314  0.42572  0.46658  1.0000
  H   H284      1.0  0.12191  0.39378  0.41868  1.0000
  C   C262      1.0  0.12807  0.45524  0.61400  1.0000
  H   H285      1.0  0.11276  0.44473  0.60664  1.0000
  H   H286      1.0  0.13658  0.45022  0.57825  1.0000
  H   H287      1.0  0.13074  0.46882  0.58463  1.0000
  C   C263      1.0  0.14271  0.45770  0.37607  1.0000
  H   H288      1.0  0.15421  0.46001  0.42259  1.0000
  H   H289      1.0  0.13140  0.45812  0.41499  1.0000
  C   C264      1.0  0.56964  0.68540  0.33891  1.0000
  C   C265      1.0  0.60353  0.70897  0.37126  1.0000
  C   C266      1.0  0.58459  0.69649  0.39988  1.0000
  H   H290      1.0  0.58174  0.69589  0.46654  1.0000
  H   H291      1.0  0.61368  0.71659  0.41866  1.0000
  C   C267      1.0  0.55228  0.66121  0.61400  1.0000
  H   H292      1.0  0.56279  0.65640  0.60675  1.0000
  H   H293      1.0  0.55730  0.67472  0.57818  1.0000
  H   H294      1.0  0.53870  0.65029  0.58462  1.0000
  C   C268      1.0  0.54977  0.67345  0.37601  1.0000
  H   H295      1.0  0.54745  0.68262  0.42259  1.0000
  H   H296      1.0  0.54934  0.66170  0.41487  1.0000
  C   C269      1.0  0.32208  0.87267  0.33876  1.0000
  C   C270      1.0  0.29850  0.88296  0.37111  1.0000
  C   C271      1.0  0.31098  0.87651  0.39972  1.0000
  H   H297      1.0  0.31158  0.87426  0.46638  1.0000
  H   H298      1.0  0.29086  0.88547  0.41851  1.0000
  C   C272      1.0  0.34635  0.87962  0.61391  1.0000
  H   H299      1.0  0.35115  0.89493  0.60677  1.0000
  H   H300      1.0  0.33285  0.87113  0.57800  1.0000
  H   H301      1.0  0.35728  0.87698  0.58452  1.0000
  C   C273      1.0  0.33404  0.86476  0.37585  1.0000
  H   H302      1.0  0.32489  0.85328  0.42249  1.0000
  H   H303      1.0  0.34580  0.87610  0.41465  1.0000
  C   C274      1.0  0.88285  0.55943  0.33877  1.0000
  C   C275      1.0  0.89313  0.59331  0.37114  1.0000
  C   C276      1.0  0.88667  0.57437  0.39974  1.0000
  H   H304      1.0  0.88442  0.57152  0.46640  1.0000
  H   H305      1.0  0.89563  0.60345  0.41855  1.0000
  C   C277      1.0  0.88987  0.54215  0.61396  1.0000
  H   H306      1.0  0.90519  0.55266  0.60688  1.0000
  H   H307      1.0  0.88139  0.54716  0.57800  1.0000
  H   H308      1.0  0.88725  0.52858  0.58456  1.0000
  C   C278      1.0  0.87496  0.53956  0.37585  1.0000
  H   H309      1.0  0.86348  0.53723  0.42252  1.0000
  H   H310      1.0  0.88630  0.53915  0.41462  1.0000
  C   C279      1.0  0.44805  0.31186  0.33885  1.0000
  C   C280      1.0  0.41417  0.28826  0.37118  1.0000
  C   C281      1.0  0.43310  0.30075  0.39980  1.0000
  H   H311      1.0  0.43595  0.30135  0.46646  1.0000
  H   H312      1.0  0.40402  0.28063  0.41857  1.0000
  C   C282      1.0  0.46538  0.33611  0.61399  1.0000
  H   H313      1.0  0.45487  0.34091  0.60682  1.0000
  H   H314      1.0  0.46037  0.32260  0.57809  1.0000
  H   H315      1.0  0.47895  0.34704  0.58460  1.0000
  C   C283      1.0  0.46791  0.32383  0.37595  1.0000
  H   H316      1.0  0.47024  0.31467  0.42256  1.0000
  H   H317      1.0  0.46833  0.33558  0.41477  1.0000
  C   C284      1.0  0.69563  0.12462  0.33887  1.0000
  C   C285      1.0  0.71922  0.11433  0.37121  1.0000
  C   C286      1.0  0.70674  0.12078  0.39983  1.0000
  H   H318      1.0  0.70614  0.12304  0.46649  1.0000
  H   H319      1.0  0.72686  0.11182  0.41861  1.0000
  C   C287      1.0  0.67139  0.11771  0.61401  1.0000
  H   H320      1.0  0.66658  0.10240  0.60683  1.0000
  H   H321      1.0  0.68489  0.12620  0.57813  1.0000
  H   H322      1.0  0.66046  0.12036  0.58463  1.0000
  C   C288      1.0  0.68367  0.13253  0.37597  1.0000
  H   H323      1.0  0.69282  0.14401  0.42257  1.0000
  H   H324      1.0  0.67192  0.12119  0.41482  1.0000
  C   C289      1.0  0.44569  0.12004  0.41979  1.0000
  C   C290      1.0  0.42699  0.11576  0.44768  1.0000
  C   C291      1.0  0.41273  0.11301  0.38422  1.0000
  N   N181      1.0  0.42333  0.11434  0.53676  1.0000
  C   C292      1.0  0.43647  0.11672  0.59987  1.0000
  C   C293      1.0  0.45502  0.12078  0.57292  1.0000
  N   N182      1.0  0.45842  0.12210  0.48429  1.0000
  H   H325      1.0  0.43264  0.11542  0.66534  1.0000
  N   N183      1.0  0.47058  0.12344  0.62736  1.0000
  H   H326      1.0  0.48189  0.13711  0.61616  1.0000
  C   C294      1.0  0.39291  0.10795  0.41337  1.0000
  H   H327      1.0  0.39393  0.11751  0.46781  1.0000
  H   H328      1.0  0.38605  0.09323  0.43947  1.0000
  C   C295      1.0  0.69340  0.56179  0.41971  1.0000
  C   C296      1.0  0.70783  0.58048  0.44760  1.0000
  C   C297      1.0  0.71935  0.59473  0.38414  1.0000
  N   N184      1.0  0.71008  0.58413  0.53668  1.0000
  C   C298      1.0  0.69932  0.57100  0.59979  1.0000
  C   C299      1.0  0.68481  0.55246  0.57286  1.0000
  N   N185      1.0  0.68273  0.54907  0.48422  1.0000
  H   H329      1.0  0.70186  0.57482  0.66527  1.0000
  N   N186      1.0  0.67190  0.53690  0.62729  1.0000
  H   H330      1.0  0.67424  0.52558  0.61609  1.0000
  C   C300      1.0  0.73412  0.61455  0.41328  1.0000
  H   H331      1.0  0.74266  0.61352  0.46767  1.0000
  H   H332      1.0  0.72628  0.62142  0.43944  1.0000
  C   C301      1.0  0.88745  0.31408  0.41980  1.0000
  C   C302      1.0  0.89173  0.29967  0.44770  1.0000
  C   C303      1.0  0.89446  0.28814  0.38425  1.0000
  N   N187      1.0  0.89317  0.29744  0.53678  1.0000
  C   C304      1.0  0.89081  0.30821  0.59987  1.0000
  C   C305      1.0  0.88676  0.32270  0.57293  1.0000
  N   N188      1.0  0.88542  0.32477  0.48430  1.0000
  H   H333      1.0  0.89211  0.30568  0.66535  1.0000
  N   N189      1.0  0.88412  0.33562  0.62736  1.0000
  H   H334      1.0  0.87045  0.33328  0.61621  1.0000
  C   C306      1.0  0.89952  0.27338  0.41340  1.0000
  H   H335      1.0  0.88996  0.26484  0.46784  1.0000
  H   H336      1.0  0.91423  0.28123  0.43949  1.0000
  C   C307      1.0  0.57201  0.87724  0.41972  1.0000
  C   C308      1.0  0.59070  0.88150  0.44761  1.0000
  C   C309      1.0  0.60494  0.88420  0.38417  1.0000
  N   N190      1.0  0.59436  0.88295  0.53669  1.0000
  C   C310      1.0  0.58124  0.88061  0.59979  1.0000
  C   C311      1.0  0.56271  0.87658  0.57284  1.0000
  N   N191      1.0  0.55930  0.87523  0.48421  1.0000
  H   H337      1.0  0.58507  0.88192  0.66526  1.0000
  N   N192      1.0  0.54715  0.87397  0.62728  1.0000
  H   H338      1.0  0.53582  0.86031  0.61613  1.0000
  C   C312      1.0  0.62477  0.88927  0.41332  1.0000
  H   H339      1.0  0.62374  0.87971  0.46776  1.0000
  H   H340      1.0  0.63163  0.90398  0.43941  1.0000
  C   C313      1.0  0.32431  0.43546  0.41975  1.0000
  C   C314      1.0  0.30990  0.41676  0.44766  1.0000
  C   C315      1.0  0.29834  0.40252  0.38423  1.0000
  N   N193      1.0  0.30770  0.41309  0.53673  1.0000
  C   C316      1.0  0.31849  0.42621  0.59982  1.0000
  C   C317      1.0  0.33298  0.44475  0.57287  1.0000
  N   N194      1.0  0.33503  0.44817  0.48424  1.0000
  H   H341      1.0  0.31598  0.42237  0.66529  1.0000
  N   N195      1.0  0.34593  0.46030  0.62730  1.0000
  H   H342      1.0  0.34361  0.47164  0.61619  1.0000
  C   C318      1.0  0.28359  0.38270  0.41339  1.0000
  H   H343      1.0  0.27507  0.38372  0.46790  1.0000
  H   H344      1.0  0.29144  0.37583  0.43940  1.0000
  C   C319      1.0  0.13020  0.68316  0.41975  1.0000
  C   C320      1.0  0.12594  0.69759  0.44764  1.0000
  C   C321      1.0  0.12323  0.70913  0.38419  1.0000
  N   N196      1.0  0.12449  0.69981  0.53672  1.0000
  C   C322      1.0  0.12683  0.68903  0.59982  1.0000
  C   C323      1.0  0.13087  0.67453  0.57288  1.0000
  N   N197      1.0  0.13221  0.67246  0.48425  1.0000
  H   H345      1.0  0.12552  0.69155  0.66529  1.0000
  N   N198      1.0  0.13348  0.66159  0.62732  1.0000
  H   H346      1.0  0.14714  0.66391  0.61617  1.0000
  C   C324      1.0  0.11817  0.72389  0.41334  1.0000
  H   H347      1.0  0.12772  0.73242  0.46782  1.0000
  H   H348      1.0  0.10345  0.71604  0.43937  1.0000
  C   C325      1.0  0.26005  0.52000  0.42028  1.0000
  C   C326      1.0  0.27632  0.51785  0.43792  1.0000
  C   C327      1.0  0.28305  0.50961  0.37374  1.0000
  N   N199      1.0  0.28531  0.52413  0.51796  1.0000
  C   C328      1.0  0.27954  0.53216  0.58145  1.0000
  C   C329      1.0  0.26323  0.53395  0.56524  1.0000
  N   N200      1.0  0.25426  0.52789  0.48516  1.0000
  H   H349      1.0  0.28685  0.53650  0.64037  1.0000
  N   N201      1.0  0.25677  0.54203  0.63066  1.0000
  H   H350      1.0  0.25350  0.55159  0.60104  1.0000
  H   H351      1.0  0.22759  0.51903  0.63892  1.0000
  C   C330      1.0  0.30057  0.50813  0.39292  1.0000
  H   H352      1.0  0.29808  0.49970  0.45386  1.0000
  H   H353      1.0  0.31223  0.52283  0.40617  1.0000
  C   C331      1.0  0.48752  0.72854  0.42036  1.0000
  C   C332      1.0  0.48968  0.74696  0.43806  1.0000
  C   C333      1.0  0.49793  0.76194  0.37391  1.0000
  N   N202      1.0  0.48341  0.74967  0.51810  1.0000
  C   C334      1.0  0.47536  0.73586  0.58154  1.0000
  C   C335      1.0  0.47356  0.71775  0.56531  1.0000
  N   N203      1.0  0.47963  0.71485  0.48521  1.0000
  H   H354      1.0  0.47103  0.73882  0.64051  1.0000
  N   N204      1.0  0.46548  0.70321  0.63070  1.0000
  H   H355      1.0  0.45593  0.69038  0.60103  1.0000
  H   H356      1.0  0.48849  0.69705  0.63904  1.0000
  C   C336      1.0  0.49942  0.78093  0.39315  1.0000
  H   H357      1.0  0.50785  0.78687  0.45408  1.0000
  H   H358      1.0  0.48473  0.77791  0.40645  1.0000
  C   C337      1.0  0.27895  0.74743  0.42026  1.0000
  C   C338      1.0  0.26052  0.73118  0.43807  1.0000
  C   C339      1.0  0.24553  0.72443  0.37397  1.0000
  N   N205      1.0  0.25783  0.72222  0.51817  1.0000
  C   C340      1.0  0.27165  0.72800  0.58155  1.0000
  C   C341      1.0  0.28976  0.74429  0.56517  1.0000
  N   N206      1.0  0.29265  0.75323  0.48503  1.0000
  H   H359      1.0  0.26870  0.72072  0.64055  1.0000
  N   N207      1.0  0.30433  0.75075  0.63044  1.0000
  H   H360      1.0  0.31720  0.75426  0.60053  1.0000
  H   H361      1.0  0.31013  0.77978  0.64051  1.0000
  C   C342      1.0  0.22654  0.70693  0.39329  1.0000
  H   H362      1.0  0.22061  0.70944  0.45422  1.0000
  H   H363      1.0  0.22957  0.69527  0.40663  1.0000
  C   C343      1.0  0.75763  0.47735  0.42031  1.0000
  C   C344      1.0  0.74138  0.47952  0.43816  1.0000
  C   C345      1.0  0.73463  0.48777  0.37408  1.0000
  N   N208      1.0  0.73242  0.47326  0.51827  1.0000
  C   C346      1.0  0.73821  0.46521  0.58163  1.0000
  C   C347      1.0  0.75450  0.46339  0.56521  1.0000
  N   N209      1.0  0.76343  0.46945  0.48505  1.0000
  H   H364      1.0  0.73093  0.46088  0.64063  1.0000
  N   N210      1.0  0.76096  0.45527  0.63043  1.0000
  H   H365      1.0  0.76448  0.44593  0.60049  1.0000
  H   H366      1.0  0.78998  0.47853  0.64065  1.0000
  C   C348      1.0  0.71713  0.48926  0.39345  1.0000
  H   H367      1.0  0.71964  0.49770  0.45438  1.0000
  H   H368      1.0  0.70547  0.47457  0.40679  1.0000
  C   C349      1.0  0.53020  0.26878  0.42034  1.0000
  C   C350      1.0  0.52805  0.25036  0.43805  1.0000
  C   C351      1.0  0.51980  0.23538  0.37391  1.0000
  N   N211      1.0  0.53432  0.24766  0.51811  1.0000
  C   C352      1.0  0.54236  0.26147  0.58155  1.0000
  C   C353      1.0  0.54416  0.27957  0.56527  1.0000
  N   N212      1.0  0.53809  0.28247  0.48517  1.0000
  H   H369      1.0  0.54670  0.25851  0.64050  1.0000
  N   N213      1.0  0.55223  0.29412  0.63065  1.0000
  H   H370      1.0  0.56175  0.30696  0.60096  1.0000
  H   H371      1.0  0.52918  0.30022  0.63924  1.0000
  C   C354      1.0  0.51832  0.21638  0.39317  1.0000
  H   H372      1.0  0.50989  0.21045  0.45411  1.0000
  H   H373      1.0  0.53301  0.21941  0.40644  1.0000
  C   C355      1.0  0.73871  0.24986  0.42032  1.0000
  C   C356      1.0  0.75713  0.26613  0.43802  1.0000
  C   C357      1.0  0.77211  0.27286  0.37386  1.0000
  N   N214      1.0  0.75984  0.27511  0.51806  1.0000
  C   C358      1.0  0.74603  0.26933  0.58152  1.0000
  C   C359      1.0  0.72792  0.25303  0.56527  1.0000
  N   N215      1.0  0.72503  0.24406  0.48517  1.0000
  H   H374      1.0  0.74899  0.27664  0.64045  1.0000
  N   N216      1.0  0.71338  0.24657  0.63066  1.0000
  H   H375      1.0  0.70055  0.24327  0.60100  1.0000
  H   H376      1.0  0.70724  0.21740  0.63906  1.0000
  C   C360      1.0  0.79110  0.29037  0.39309  1.0000
  H   H377      1.0  0.79704  0.28787  0.45402  1.0000
  H   H378      1.0  0.78807  0.30203  0.40637  1.0000
  C   C361      1.0  0.17173  0.56297  0.30495  1.0000
  C   C362      1.0  0.16674  0.58981  0.34448  1.0000
  C   C363      1.0  0.16419  0.57149  0.36258  1.0000
  H   H379      1.0  0.15642  0.56427  0.41767  1.0000
  H   H380      1.0  0.16070  0.59531  0.38692  1.0000
  C   C364      1.0  0.19044  0.54943  0.65297  1.0000
  H   H381      1.0  0.18128  0.55347  0.61570  1.0000
  H   H382      1.0  0.19696  0.54402  0.60568  1.0000
  C   C365      1.0  0.16788  0.54308  0.32242  1.0000
  H   H383      1.0  0.16133  0.53458  0.26232  1.0000
  H   H384      1.0  0.15746  0.53623  0.37651  1.0000
  C   C366      1.0  0.44452  0.59723  0.30501  1.0000
  C   C367      1.0  0.41768  0.56539  0.34457  1.0000
  C   C368      1.0  0.43600  0.58116  0.36265  1.0000
  H   H385      1.0  0.44322  0.58064  0.41780  1.0000
  H   H386      1.0  0.41218  0.55385  0.38703  1.0000
  C   C369      1.0  0.45805  0.62941  0.65285  1.0000
  H   H387      1.0  0.45400  0.61621  0.61560  1.0000
  H   H388      1.0  0.46346  0.64134  0.60553  1.0000
  C   C370      1.0  0.46440  0.61327  0.32247  1.0000
  H   H389      1.0  0.47291  0.61521  0.26238  1.0000
  H   H390      1.0  0.47126  0.60971  0.37660  1.0000
  C   C371      1.0  0.41024  0.83570  0.30507  1.0000
  C   C372      1.0  0.44208  0.84070  0.34466  1.0000
  C   C373      1.0  0.42630  0.84323  0.36276  1.0000
  H   H391      1.0  0.42683  0.85099  0.41787  1.0000
  H   H392      1.0  0.45362  0.84675  0.38712  1.0000
  C   C374      1.0  0.37811  0.81708  0.65279  1.0000
  H   H393      1.0  0.39132  0.82623  0.61557  1.0000
  H   H394      1.0  0.36619  0.81058  0.60544  1.0000
  C   C375      1.0  0.39420  0.83955  0.32249  1.0000
  H   H395      1.0  0.39228  0.84612  0.26241  1.0000
  H   H396      1.0  0.39776  0.84995  0.37665  1.0000
  C   C376      1.0  0.84589  0.43431  0.30509  1.0000
  C   C377      1.0  0.85090  0.40748  0.34472  1.0000
  C   C378      1.0  0.85343  0.42579  0.36280  1.0000
  H   H397      1.0  0.86118  0.43302  0.41791  1.0000
  H   H398      1.0  0.85695  0.40199  0.38720  1.0000
  C   C379      1.0  0.82730  0.44782  0.65278  1.0000
  H   H399      1.0  0.83645  0.44376  0.61559  1.0000
  H   H400      1.0  0.82080  0.45323  0.60540  1.0000
  C   C380      1.0  0.84974  0.45420  0.32250  1.0000
  H   H401      1.0  0.85631  0.46269  0.26241  1.0000
  H   H402      1.0  0.86014  0.46105  0.37665  1.0000
  C   C381      1.0  0.57319  0.40006  0.30493  1.0000
  C   C382      1.0  0.60002  0.43190  0.34446  1.0000
  C   C383      1.0  0.58170  0.41613  0.36255  1.0000
  H   H403      1.0  0.57447  0.41667  0.41762  1.0000
  H   H404      1.0  0.60551  0.44345  0.38689  1.0000
  C   C384      1.0  0.55965  0.36783  0.65296  1.0000
  H   H405      1.0  0.56369  0.38103  0.61573  1.0000
  H   H406      1.0  0.55425  0.35591  0.60565  1.0000
  C   C385      1.0  0.55329  0.38403  0.32237  1.0000
  H   H407      1.0  0.54480  0.38208  0.26226  1.0000
  H   H408      1.0  0.54644  0.38759  0.37646  1.0000
  C   C386      1.0  0.60742  0.16154  0.30489  1.0000
  C   C387      1.0  0.57558  0.15654  0.34442  1.0000
  C   C388      1.0  0.59135  0.15399  0.36250  1.0000
  H   H409      1.0  0.59081  0.14622  0.41759  1.0000
  H   H410      1.0  0.56404  0.15049  0.38685  1.0000
  C   C389      1.0  0.63967  0.18025  0.65295  1.0000
  H   H411      1.0  0.62647  0.17108  0.61570  1.0000
  H   H412      1.0  0.65159  0.18677  0.60564  1.0000
  C   C390      1.0  0.62346  0.15769  0.32233  1.0000
  H   H413      1.0  0.62541  0.15114  0.26223  1.0000
  H   H414      1.0  0.61990  0.14727  0.37643  1.0000
  C   C391      1.0  0.99585  0.27150  0.45386  1.0000
  C   C392      1.0  0.01622  0.28363  0.45653  1.0000
  C   C393      1.0  0.02789  0.28259  0.38829  1.0000
  N   N217      1.0  0.02389  0.29604  0.52632  1.0000
  C   C394      1.0  0.01321  0.29733  0.59312  1.0000
  C   C395      1.0  0.99310  0.28518  0.59143  1.0000
  N   N218      1.0  0.98530  0.27287  0.52156  1.0000
  H   H415      1.0  0.01983  0.30690  0.64386  1.0000
  N   N219      1.0  0.98157  0.28606  0.66009  1.0000
  H   H416      1.0  0.97164  0.28904  0.63233  1.0000
  C   C396      1.0  0.04927  0.29482  0.38680  1.0000
  H   H417      1.0  0.05524  0.28515  0.38690  1.0000
  H   H418      1.0  0.05480  0.30390  0.44610  1.0000
  C   C397      1.0  0.73596  0.71276  0.45377  1.0000
  C   C398      1.0  0.72383  0.72100  0.45644  1.0000
  C   C399      1.0  0.72487  0.73371  0.38820  1.0000
  N   N220      1.0  0.71143  0.71627  0.52626  1.0000
  C   C400      1.0  0.71014  0.70430  0.59308  1.0000
  C   C401      1.0  0.72229  0.69633  0.59137  1.0000
  N   N221      1.0  0.73459  0.70084  0.52149  1.0000
  H   H419      1.0  0.70058  0.70136  0.64382  1.0000
  N   N222      1.0  0.72141  0.68393  0.66005  1.0000
  H   H420      1.0  0.71843  0.67102  0.63231  1.0000
  C   C402      1.0  0.71265  0.74287  0.38672  1.0000
  H   H421      1.0  0.72232  0.75850  0.38680  1.0000
  H   H422      1.0  0.70357  0.73932  0.44603  1.0000
  C   C403      1.0  0.29470  0.01161  0.45382  1.0000
  C   C404      1.0  0.28647  0.99125  0.45648  1.0000
  C   C405      1.0  0.27376  0.97957  0.38824  1.0000
  N   N223      1.0  0.29121  0.98358  0.52628  1.0000
  C   C406      1.0  0.30318  0.99425  0.59310  1.0000
  C   C407      1.0  0.31114  0.01437  0.59140  1.0000
  N   N224      1.0  0.30662  0.02216  0.52153  1.0000
  H   H423      1.0  0.30612  0.98764  0.64383  1.0000
  N   N225      1.0  0.32354  0.02589  0.66007  1.0000
  H   H424      1.0  0.33645  0.03583  0.63232  1.0000
  C   C408      1.0  0.26461  0.95819  0.38674  1.0000
  H   H425      1.0  0.24898  0.95223  0.38686  1.0000
  H   H426      1.0  0.26816  0.95266  0.44604  1.0000
  C   C409      1.0  0.02183  0.72575  0.45374  1.0000
  C   C410      1.0  0.00146  0.71361  0.45641  1.0000
  C   C411      1.0  0.98979  0.71465  0.38816  1.0000
  N   N226      1.0  0.99379  0.70121  0.52622  1.0000
  C   C412      1.0  0.00447  0.69993  0.59305  1.0000
  C   C413      1.0  0.02458  0.71207  0.59135  1.0000
  N   N227      1.0  0.03238  0.72438  0.52146  1.0000
  H   H427      1.0  0.99785  0.69036  0.64380  1.0000
  N   N228      1.0  0.03610  0.71120  0.66004  1.0000
  H   H428      1.0  0.04604  0.70823  0.63231  1.0000
  C   C414      1.0  0.96841  0.70243  0.38668  1.0000
  H   H429      1.0  0.96244  0.71209  0.38677  1.0000
  H   H430      1.0  0.96287  0.69335  0.44599  1.0000
  C   C415      1.0  0.28173  0.28450  0.45368  1.0000
  C   C416      1.0  0.29387  0.27627  0.45633  1.0000
  C   C417      1.0  0.29283  0.26356  0.38807  1.0000
  N   N229      1.0  0.30627  0.28100  0.52613  1.0000
  C   C418      1.0  0.30756  0.29296  0.59297  1.0000
  C   C419      1.0  0.29541  0.30093  0.59129  1.0000
  N   N230      1.0  0.28310  0.29641  0.52141  1.0000
  H   H431      1.0  0.31712  0.29591  0.64371  1.0000
  N   N231      1.0  0.29628  0.31332  0.65998  1.0000
  H   H432      1.0  0.29925  0.32623  0.63225  1.0000
  C   C420      1.0  0.30505  0.25440  0.38658  1.0000
  H   H433      1.0  0.29539  0.23877  0.38668  1.0000
  H   H434      1.0  0.31413  0.25795  0.44589  1.0000
  C   C421      1.0  0.72297  0.98565  0.45370  1.0000
  C   C422      1.0  0.73120  0.00602  0.45633  1.0000
  C   C423      1.0  0.74391  0.01769  0.38806  1.0000
  N   N232      1.0  0.72648  0.01370  0.52614  1.0000
  C   C424      1.0  0.71452  0.00302  0.59298  1.0000
  C   C425      1.0  0.70656  0.98291  0.59133  1.0000
  N   N233      1.0  0.71106  0.97511  0.52146  1.0000
  H   H435      1.0  0.71159  0.00965  0.64374  1.0000
  N   N234      1.0  0.69417  0.97140  0.66006  1.0000
  H   H436      1.0  0.68126  0.96145  0.63237  1.0000
  C   C426      1.0  0.75307  0.03907  0.38655  1.0000
  H   H437      1.0  0.76870  0.04503  0.38663  1.0000
  H   H438      1.0  0.74953  0.04460  0.44586  1.0000
  C   C427      1.0  0.16627  0.30108  0.39373  1.0000
  C   C428      1.0  0.14690  0.29731  0.39361  1.0000
  C   C429      1.0  0.13907  0.30151  0.31789  1.0000
  N   N235      1.0  0.13625  0.28997  0.46907  1.0000
  C   C430      1.0  0.14301  0.28598  0.54399  1.0000
  C   C431      1.0  0.16210  0.28969  0.54499  1.0000
  N   N236      1.0  0.17274  0.29702  0.46984  1.0000
  H   H439      1.0  0.13429  0.28043  0.59841  1.0000
  N   N237      1.0  0.16960  0.28550  0.62122  1.0000
  C   C432      1.0  0.18616  0.30256  0.66197  1.0000
  H   H440      1.0  0.17374  0.27570  0.60396  1.0000
  H   H441      1.0  0.19853  0.30908  0.61691  1.0000
  C   C433      1.0  0.11945  0.29937  0.32195  1.0000
  H   H442      1.0  0.11904  0.30685  0.38228  1.0000
  H   H443      1.0  0.10870  0.28412  0.32981  1.0000
  C   C434      1.0  0.70640  0.85362  0.39373  1.0000
  C   C435      1.0  0.71016  0.83801  0.39362  1.0000
  C   C436      1.0  0.70596  0.82598  0.31789  1.0000
  N   N238      1.0  0.71748  0.83469  0.46910  1.0000
  C   C437      1.0  0.72147  0.84544  0.54403  1.0000
  C   C438      1.0  0.71778  0.86082  0.54501  1.0000
  N   N239      1.0  0.71045  0.86414  0.46985  1.0000
  H   H444      1.0  0.72701  0.84225  0.59844  1.0000
  N   N240      1.0  0.72196  0.87251  0.62123  1.0000
  C   C439      1.0  0.70491  0.87203  0.66195  1.0000
  H   H445      1.0  0.73177  0.88644  0.60398  1.0000
  H   H446      1.0  0.69839  0.87788  0.61687  1.0000
  C   C440      1.0  0.70809  0.80849  0.32196  1.0000
  H   H447      1.0  0.70060  0.80060  0.38224  1.0000
  H   H448      1.0  0.72334  0.81299  0.32989  1.0000
  C   C441      1.0  0.15387  0.84119  0.39374  1.0000
  C   C442      1.0  0.16947  0.86056  0.39364  1.0000
  C   C443      1.0  0.18150  0.86840  0.31790  1.0000
  N   N241      1.0  0.17279  0.87120  0.46913  1.0000
  C   C444      1.0  0.16205  0.86443  0.54407  1.0000
  C   C445      1.0  0.14667  0.84535  0.54505  1.0000
  N   N242      1.0  0.14335  0.83471  0.46987  1.0000
  H   H449      1.0  0.16523  0.87315  0.59851  1.0000
  N   N243      1.0  0.13499  0.83784  0.62129  1.0000
  C   C446      1.0  0.13548  0.82127  0.66194  1.0000
  H   H450      1.0  0.12105  0.83371  0.60409  1.0000
  H   H451      1.0  0.12963  0.80890  0.61683  1.0000
  C   C447      1.0  0.19897  0.88802  0.32196  1.0000
  H   H452      1.0  0.20687  0.88843  0.38225  1.0000
  H   H453      1.0  0.19447  0.89877  0.32988  1.0000
  C   C448      1.0  0.85140  0.69616  0.39373  1.0000
  C   C449      1.0  0.87077  0.69993  0.39363  1.0000
  C   C450      1.0  0.87862  0.69575  0.31787  1.0000
  N   N244      1.0  0.88141  0.70724  0.46912  1.0000
  C   C451      1.0  0.87464  0.71122  0.54407  1.0000
  C   C452      1.0  0.85556  0.70752  0.54504  1.0000
  N   N245      1.0  0.84492  0.70020  0.46986  1.0000
  H   H454      1.0  0.88336  0.71675  0.59850  1.0000
  N   N246      1.0  0.84805  0.71168  0.62129  1.0000
  C   C453      1.0  0.83148  0.69462  0.66193  1.0000
  H   H455      1.0  0.84392  0.72149  0.60409  1.0000
  H   H456      1.0  0.81911  0.68811  0.61681  1.0000
  C   C454      1.0  0.89823  0.69788  0.32194  1.0000
  H   H457      1.0  0.89863  0.69038  0.38220  1.0000
  H   H458      1.0  0.90898  0.71314  0.32992  1.0000
  C   C455      1.0  0.31132  0.14366  0.39375  1.0000
  C   C456      1.0  0.30755  0.15926  0.39361  1.0000
  C   C457      1.0  0.31172  0.17128  0.31786  1.0000
  N   N247      1.0  0.30022  0.16258  0.46909  1.0000
  C   C458      1.0  0.29624  0.15184  0.54404  1.0000
  C   C459      1.0  0.29995  0.13647  0.54505  1.0000
  N   N248      1.0  0.30728  0.13315  0.46989  1.0000
  H   H459      1.0  0.29070  0.15502  0.59845  1.0000
  N   N249      1.0  0.29578  0.12479  0.62130  1.0000
  C   C460      1.0  0.31285  0.12529  0.66198  1.0000
  H   H460      1.0  0.28598  0.11085  0.60409  1.0000
  H   H461      1.0  0.31937  0.11944  0.61689  1.0000
  C   C461      1.0  0.30958  0.18876  0.32188  1.0000
  H   H462      1.0  0.31706  0.19665  0.38219  1.0000
  H   H463      1.0  0.29432  0.18424  0.32975  1.0000
  C   C462      1.0  0.86380  0.15607  0.39373  1.0000
  C   C463      1.0  0.84820  0.13670  0.39358  1.0000
  C   C464      1.0  0.83618  0.12886  0.31781  1.0000
  N   N250      1.0  0.84487  0.12605  0.46905  1.0000
  C   C465      1.0  0.85562  0.13281  0.54400  1.0000
  C   C466      1.0  0.87099  0.15190  0.54502  1.0000
  N   N251      1.0  0.87432  0.16254  0.46987  1.0000
  H   H464      1.0  0.85243  0.12408  0.59841  1.0000
  N   N252      1.0  0.88267  0.15939  0.62128  1.0000
  C   C467      1.0  0.88218  0.17596  0.66197  1.0000
  H   H465      1.0  0.89661  0.16353  0.60407  1.0000
  H   H466      1.0  0.88803  0.18833  0.61689  1.0000
  C   C468      1.0  0.81871  0.10924  0.32183  1.0000
  H   H467      1.0  0.81080  0.10883  0.38212  1.0000
  H   H468      1.0  0.82321  0.09849  0.32974  1.0000
