data_image0
_chemical_formula_structural       C4H2C4HNH2C4H2C4HNH2C4H3NH2C4H3NH2C4H3NH2C4H3NH2C4H2C4HNH2C4H2C4HNH2C4H2C4HNH2C4H2C4HNH2C4H3NH2C4H3NH2C4H3NH2C4H3NH2C4H2C4HNH2C4H2C4HNH2C4H2C4HNH2C4H2C4HNH2CNCNCNCNCNCNCNCNCNCNCNCNCNCNCNCNCNCNCNCNCNCNCNCNCNCNCNCNCNCNCNCNCNCNCNCNC4H3NH2C4H3NH2C4H2C4HNH2C4H2C4HNH2C4H2C4HNH2C4H2C4HNH2C4H3NH2C4H3NH2C4H3NH2C4H3NH2C4H2C4HNH2C4H2C4HNH2C4H2C4HNH2C4H2C4HNH2C4H3NH2C4H3NH2C4H3NH2C4H3NH2
_chemical_formula_sum              "C252 H180 N72"
_cell_length_a       51.4405
_cell_length_b       51.2795
_cell_length_c       14.8996
_cell_angle_alpha    90
_cell_angle_beta     90
_cell_angle_gamma    90.1848

_space_group_name_H-M_alt    "P 1"
_space_group_IT_number       1

loop_
  _space_group_symop_operation_xyz
  'x, y, z'

loop_
  _atom_site_type_symbol
  _atom_site_label
  _atom_site_symmetry_multiplicity
  _atom_site_fract_x
  _atom_site_fract_y
  _atom_site_fract_z
  _atom_site_occupancy
  C   C1        1.0  0.95273  0.55169  0.33921  1.0000
  C   C2        1.0  0.99324  0.51304  0.33800  1.0000
  C   C3        1.0  0.96791  0.50727  0.30641  1.0000
  C   C4        1.0  0.94804  0.52607  0.30787  1.0000
  H   H1        1.0  0.96373  0.48921  0.28069  1.0000
  H   H2        1.0  0.93017  0.52098  0.28313  1.0000
  C   C5        1.0  0.01280  0.49316  0.33267  1.0000
  C   C6        1.0  0.05151  0.45288  0.33455  1.0000
  C   C7        1.0  0.05510  0.47606  0.28453  1.0000
  C   C8        1.0  0.03595  0.49591  0.28058  1.0000
  H   H3        1.0  0.07173  0.47819  0.24739  1.0000
  N   N1        1.0  0.04034  0.51674  0.22586  1.0000
  H   H4        1.0  0.02732  0.53013  0.21657  1.0000
  H   H5        1.0  0.05605  0.51805  0.18972  1.0000
  C   C9        1.0  0.45177  0.95213  0.33920  1.0000
  C   C10       1.0  0.49071  0.99258  0.33797  1.0000
  C   C11       1.0  0.49622  0.96713  0.30660  1.0000
  C   C12       1.0  0.47727  0.94729  0.30809  1.0000
  H   H6        1.0  0.51419  0.96285  0.28103  1.0000
  H   H7        1.0  0.48218  0.92933  0.28352  1.0000
  C   C13       1.0  0.51073  0.01212  0.33243  1.0000
  C   C14       1.0  0.55122  0.05086  0.33397  1.0000
  C   C15       1.0  0.52816  0.05444  0.28374  1.0000
  C   C16       1.0  0.50821  0.03528  0.27995  1.0000
  H   H8        1.0  0.52619  0.07109  0.24639  1.0000
  N   N2        1.0  0.48751  0.03966  0.22505  1.0000
  H   H9        1.0  0.47405  0.02662  0.21585  1.0000
  H   H10       1.0  0.48637  0.05538  0.18864  1.0000
  C   C17       1.0  0.07318  0.23401  0.31105  1.0000
  C   C18       1.0  0.07894  0.26108  0.30944  1.0000
  C   C19       1.0  0.04970  0.32379  0.30367  1.0000
  C   C20       1.0  0.05463  0.35081  0.30318  1.0000
  H   H11       1.0  0.03463  0.31681  0.26558  1.0000
  H   H12       1.0  0.04314  0.36259  0.26454  1.0000
  H   H13       1.0  0.08647  0.22134  0.28456  1.0000
  N   N3        1.0  0.10174  0.26891  0.27134  1.0000
  H   H14       1.0  0.11384  0.25641  0.24565  1.0000
  H   H15       1.0  0.10609  0.28722  0.26388  1.0000
  C   C21       1.0  0.93014  0.77026  0.30887  1.0000
  C   C22       1.0  0.92423  0.74323  0.30689  1.0000
  C   C23       1.0  0.95318  0.68034  0.30028  1.0000
  C   C24       1.0  0.94819  0.65333  0.29997  1.0000
  H   H16       1.0  0.96827  0.68728  0.26221  1.0000
  H   H17       1.0  0.95970  0.64150  0.26158  1.0000
  H   H18       1.0  0.91687  0.78303  0.28276  1.0000
  N   N4        1.0  0.90135  0.73556  0.26897  1.0000
  H   H19       1.0  0.88929  0.74817  0.24362  1.0000
  H   H20       1.0  0.89689  0.71729  0.26128  1.0000
  C   C25       1.0  0.76950  0.07318  0.31023  1.0000
  C   C26       1.0  0.74254  0.07890  0.30856  1.0000
  C   C27       1.0  0.67987  0.04944  0.30332  1.0000
  C   C28       1.0  0.65296  0.05435  0.30281  1.0000
  H   H21       1.0  0.68676  0.03429  0.26545  1.0000
  H   H22       1.0  0.64116  0.04274  0.26441  1.0000
  H   H23       1.0  0.78217  0.08653  0.28356  1.0000
  N   N5        1.0  0.73482  0.10171  0.27018  1.0000
  H   H24       1.0  0.74733  0.11385  0.24431  1.0000
  H   H25       1.0  0.71659  0.10603  0.26266  1.0000
  C   C29       1.0  0.23368  0.93058  0.30647  1.0000
  C   C30       1.0  0.26056  0.92454  0.30444  1.0000
  C   C31       1.0  0.32363  0.95324  0.30107  1.0000
  C   C32       1.0  0.35049  0.94808  0.30088  1.0000
  H   H26       1.0  0.31697  0.96866  0.26400  1.0000
  H   H27       1.0  0.36248  0.95981  0.26360  1.0000
  H   H28       1.0  0.22083  0.91749  0.27925  1.0000
  N   N6        1.0  0.26799  0.90179  0.26497  1.0000
  H   H29       1.0  0.25532  0.88991  0.23854  1.0000
  H   H30       1.0  0.28616  0.89728  0.25720  1.0000
  C   C33       1.0  0.45469  0.72326  0.33852  1.0000
  C   C34       1.0  0.44313  0.77807  0.33683  1.0000
  C   C35       1.0  0.46699  0.76847  0.30332  1.0000
  C   C36       1.0  0.47277  0.74167  0.30505  1.0000
  H   H31       1.0  0.48034  0.78098  0.27576  1.0000
  H   H32       1.0  0.49013  0.73566  0.27878  1.0000
  C   C37       1.0  0.43786  0.80544  0.32969  1.0000
  C   C38       1.0  0.42684  0.86021  0.33139  1.0000
  C   C39       1.0  0.41127  0.84252  0.28199  1.0000
  C   C40       1.0  0.41675  0.81546  0.27815  1.0000
  H   H33       1.0  0.39586  0.84959  0.24597  1.0000
  N   N7        1.0  0.40161  0.80012  0.22470  1.0000
  H   H34       1.0  0.40535  0.78176  0.21558  1.0000
  H   H35       1.0  0.38754  0.80743  0.18905  1.0000
  C   C41       1.0  0.54909  0.27915  0.33516  1.0000
  C   C42       1.0  0.56074  0.22435  0.33279  1.0000
  C   C43       1.0  0.53677  0.23394  0.30014  1.0000
  C   C44       1.0  0.53095  0.26073  0.30219  1.0000
  H   H36       1.0  0.52334  0.22141  0.27309  1.0000
  H   H37       1.0  0.51349  0.26671  0.27665  1.0000
  C   C45       1.0  0.56594  0.19696  0.32591  1.0000
  C   C46       1.0  0.57681  0.14218  0.32839  1.0000
  C   C47       1.0  0.59240  0.15973  0.27854  1.0000
  C   C48       1.0  0.58697  0.18681  0.27424  1.0000
  H   H38       1.0  0.60775  0.15254  0.24253  1.0000
  N   N8        1.0  0.60206  0.20203  0.22025  1.0000
  H   H39       1.0  0.59834  0.22037  0.21082  1.0000
  H   H40       1.0  0.61606  0.19462  0.18450  1.0000
  C   C49       1.0  0.72416  0.54903  0.33801  1.0000
  C   C50       1.0  0.77896  0.56022  0.33640  1.0000
  C   C51       1.0  0.76909  0.53626  0.30364  1.0000
  C   C52       1.0  0.74229  0.53067  0.30530  1.0000
  H   H41       1.0  0.78140  0.52270  0.27662  1.0000
  H   H42       1.0  0.73609  0.51322  0.27957  1.0000
  C   C53       1.0  0.80631  0.56531  0.32908  1.0000
  C   C54       1.0  0.86101  0.57614  0.33060  1.0000
  C   C55       1.0  0.84357  0.59162  0.28032  1.0000
  C   C56       1.0  0.81654  0.58624  0.27658  1.0000
  H   H43       1.0  0.85080  0.60693  0.24373  1.0000
  N   N9        1.0  0.80143  0.60128  0.22239  1.0000
  H   H44       1.0  0.78310  0.59758  0.21335  1.0000
  H   H45       1.0  0.80889  0.61522  0.18612  1.0000
  C   C57       1.0  0.27955  0.45338  0.33520  1.0000
  C   C58       1.0  0.22472  0.44235  0.33287  1.0000
  C   C59       1.0  0.23471  0.46627  0.30011  1.0000
  C   C60       1.0  0.26152  0.47178  0.30214  1.0000
  H   H46       1.0  0.22248  0.47988  0.27300  1.0000
  H   H47       1.0  0.26780  0.48922  0.27654  1.0000
  C   C61       1.0  0.19732  0.43746  0.32583  1.0000
  C   C62       1.0  0.14252  0.42716  0.32791  1.0000
  C   C63       1.0  0.15979  0.41136  0.27809  1.0000
  C   C64       1.0  0.18687  0.41650  0.27400  1.0000
  H   H48       1.0  0.15238  0.39602  0.24207  1.0000
  N   N10       1.0  0.20181  0.40120  0.22011  1.0000
  H   H49       1.0  0.22016  0.40472  0.21082  1.0000
  H   H50       1.0  0.19420  0.38725  0.18427  1.0000
  C   C65       1.0  0.16558  0.03833  0.32036  1.0000
  C   C66       1.0  0.15418  0.06352  0.31593  1.0000
  C   C67       1.0  0.09304  0.09114  0.27448  1.0000
  C   C68       1.0  0.07570  0.11215  0.27180  1.0000
  H   H51       1.0  0.08959  0.07556  0.23299  1.0000
  H   H52       1.0  0.06026  0.11122  0.22847  1.0000
  H   H53       1.0  0.18419  0.03588  0.29756  1.0000
  N   N11       1.0  0.16850  0.08363  0.28238  1.0000
  H   H54       1.0  0.18636  0.08112  0.26260  1.0000
  H   H55       1.0  0.16141  0.10106  0.27624  1.0000
  C   C69       1.0  0.83816  0.96589  0.32308  1.0000
  C   C70       1.0  0.84953  0.94068  0.31876  1.0000
  C   C71       1.0  0.91030  0.91269  0.27274  1.0000
  C   C72       1.0  0.92755  0.89160  0.26991  1.0000
  H   H56       1.0  0.91346  0.92800  0.22982  1.0000
  H   H57       1.0  0.94265  0.89220  0.22515  1.0000
  H   H58       1.0  0.81930  0.96819  0.30262  1.0000
  N   N12       1.0  0.83488  0.92040  0.28828  1.0000
  H   H59       1.0  0.81684  0.92280  0.27054  1.0000
  H   H60       1.0  0.84193  0.90294  0.28227  1.0000
  C   C73       1.0  0.96586  0.16541  0.32293  1.0000
  C   C74       1.0  0.94057  0.15422  0.31860  1.0000
  C   C75       1.0  0.91157  0.09371  0.27077  1.0000
  C   C76       1.0  0.89029  0.07658  0.26811  1.0000
  H   H61       1.0  0.92665  0.09057  0.22715  1.0000
  H   H62       1.0  0.89055  0.06154  0.22286  1.0000
  H   H63       1.0  0.96837  0.18441  0.30348  1.0000
  N   N13       1.0  0.92050  0.16920  0.28932  1.0000
  H   H64       1.0  0.92312  0.18736  0.27238  1.0000
  H   H65       1.0  0.90299  0.16229  0.28336  1.0000
  C   C77       1.0  0.03759  0.83890  0.32000  1.0000
  C   C78       1.0  0.06283  0.85020  0.31550  1.0000
  C   C79       1.0  0.09130  0.91122  0.27203  1.0000
  C   C80       1.0  0.11253  0.92841  0.26938  1.0000
  H   H66       1.0  0.07595  0.91468  0.22986  1.0000
  H   H67       1.0  0.11197  0.94379  0.22553  1.0000
  H   H68       1.0  0.03503  0.82009  0.29856  1.0000
  N   N14       1.0  0.08279  0.83556  0.28347  1.0000
  H   H69       1.0  0.08014  0.81756  0.26473  1.0000
  H   H70       1.0  0.10026  0.84258  0.27724  1.0000
  C   C81       1.0  0.35292  0.51468  0.33183  1.0000
  C   C82       1.0  0.37657  0.56533  0.33753  1.0000
  C   C83       1.0  0.39048  0.54338  0.30658  1.0000
  C   C84       1.0  0.37896  0.51860  0.30438  1.0000
  H   H71       1.0  0.40952  0.54511  0.28709  1.0000
  H   H72       1.0  0.39010  0.50332  0.28279  1.0000
  C   C85       1.0  0.39068  0.58928  0.34485  1.0000
  C   C86       1.0  0.42534  0.63281  0.35259  1.0000
  C   C87       1.0  0.40411  0.63263  0.29240  1.0000
  C   C88       1.0  0.38702  0.61088  0.28585  1.0000
  H   H73       1.0  0.40230  0.64767  0.24759  1.0000
  N   N15       1.0  0.36843  0.61099  0.22088  1.0000
  H   H74       1.0  0.35677  0.59631  0.21176  1.0000
  H   H75       1.0  0.36646  0.62574  0.18029  1.0000
  C   C89       1.0  0.65079  0.48771  0.33219  1.0000
  C   C90       1.0  0.62710  0.43708  0.33683  1.0000
  C   C91       1.0  0.61323  0.45907  0.30609  1.0000
  C   C92       1.0  0.62476  0.48385  0.30439  1.0000
  H   H76       1.0  0.59420  0.45738  0.28640  1.0000
  H   H77       1.0  0.61365  0.49916  0.28294  1.0000
  C   C93       1.0  0.61296  0.41313  0.34369  1.0000
  C   C94       1.0  0.57827  0.36962  0.35059  1.0000
  C   C95       1.0  0.59951  0.36986  0.29049  1.0000
  C   C96       1.0  0.61662  0.39161  0.28436  1.0000
  H   H78       1.0  0.60134  0.35488  0.24548  1.0000
  N   N16       1.0  0.63524  0.39157  0.21947  1.0000
  H   H79       1.0  0.64692  0.40625  0.21064  1.0000
  H   H80       1.0  0.63721  0.37688  0.17864  1.0000
  C   C97       1.0  0.51621  0.65028  0.33322  1.0000
  C   C98       1.0  0.56683  0.62712  0.33793  1.0000
  C   C99       1.0  0.54486  0.61271  0.30958  1.0000
  C   C100      1.0  0.52011  0.62400  0.30781  1.0000
  H   H81       1.0  0.54657  0.59349  0.29166  1.0000
  H   H82       1.0  0.50484  0.61250  0.28806  1.0000
  C   C101      1.0  0.59081  0.61327  0.34485  1.0000
  C   C102      1.0  0.63426  0.57886  0.35219  1.0000
  C   C103      1.0  0.63361  0.59960  0.28983  1.0000
  C   C104      1.0  0.61188  0.61655  0.28354  1.0000
  H   H83       1.0  0.64824  0.60109  0.24341  1.0000
  N   N17       1.0  0.61148  0.63462  0.21666  1.0000
  H   H84       1.0  0.59678  0.64617  0.20776  1.0000
  H   H85       1.0  0.62586  0.63633  0.17454  1.0000
  C   C105      1.0  0.48742  0.35200  0.33138  1.0000
  C   C106      1.0  0.43678  0.37512  0.33662  1.0000
  C   C107      1.0  0.45868  0.38947  0.30717  1.0000
  C   C108      1.0  0.48344  0.37820  0.30514  1.0000
  H   H86       1.0  0.45691  0.40863  0.28862  1.0000
  H   H87       1.0  0.49866  0.38965  0.28461  1.0000
  C   C109      1.0  0.41282  0.38899  0.34379  1.0000
  C   C110      1.0  0.36945  0.42350  0.35100  1.0000
  C   C111      1.0  0.36990  0.40255  0.28947  1.0000
  C   C112      1.0  0.39159  0.38554  0.28323  1.0000
  H   H88       1.0  0.35517  0.40093  0.24352  1.0000
  N   N18       1.0  0.39181  0.36725  0.21705  1.0000
  H   H89       1.0  0.40645  0.35564  0.20821  1.0000
  H   H90       1.0  0.37732  0.36541  0.17543  1.0000
  C   C113      1.0  0.11562  0.42086  0.33286  1.0000
  N   N19       1.0  0.09671  0.43938  0.33203  1.0000
  C   C114      1.0  0.07095  0.43310  0.33634  1.0000
  N   N20       1.0  0.06439  0.40734  0.34201  1.0000
  C   C115      1.0  0.08270  0.38822  0.34380  1.0000
  N   N21       1.0  0.10808  0.39550  0.33888  1.0000
  C   C116      1.0  0.88787  0.58276  0.33503  1.0000
  N   N22       1.0  0.90704  0.56448  0.33580  1.0000
  C   C117      1.0  0.93277  0.57108  0.33885  1.0000
  N   N23       1.0  0.93883  0.59700  0.34165  1.0000
  C   C118      1.0  0.92034  0.61591  0.34215  1.0000
  N   N24       1.0  0.89507  0.60825  0.33861  1.0000
  C   C119      1.0  0.58323  0.11526  0.33301  1.0000
  N   N25       1.0  0.56477  0.09619  0.33199  1.0000
  C   C120      1.0  0.57101  0.07038  0.33592  1.0000
  N   N26       1.0  0.59668  0.06395  0.34143  1.0000
  C   C121      1.0  0.61576  0.08242  0.34332  1.0000
  N   N27       1.0  0.60851  0.10786  0.33875  1.0000
  C   C122      1.0  0.42030  0.88713  0.33547  1.0000
  N   N28       1.0  0.43863  0.90636  0.33617  1.0000
  C   C123      1.0  0.43225  0.93216  0.33893  1.0000
  N   N29       1.0  0.40645  0.93827  0.34150  1.0000
  C   C124      1.0  0.38745  0.91974  0.34199  1.0000
  N   N30       1.0  0.39492  0.89437  0.33873  1.0000
  C   C125      1.0  0.01365  0.16125  0.34496  1.0000
  N   N31       1.0  0.01915  0.18726  0.34695  1.0000
  C   C126      1.0  0.04405  0.19662  0.34395  1.0000
  N   N32       1.0  0.06377  0.17891  0.33866  1.0000
  C   C127      1.0  0.05912  0.15283  0.33489  1.0000
  N   N33       1.0  0.03408  0.14470  0.33824  1.0000
  C   C128      1.0  0.98989  0.84280  0.34431  1.0000
  N   N34       1.0  0.98436  0.81679  0.34557  1.0000
  C   C129      1.0  0.95944  0.80747  0.34231  1.0000
  N   N35       1.0  0.93975  0.82523  0.33753  1.0000
  C   C130      1.0  0.94445  0.85129  0.33446  1.0000
  N   N36       1.0  0.96949  0.85941  0.33799  1.0000
  C   C131      1.0  0.84195  0.01387  0.34560  1.0000
  N   N37       1.0  0.81601  0.01921  0.34730  1.0000
  C   C132      1.0  0.80669  0.04414  0.34367  1.0000
  N   N38       1.0  0.82435  0.06402  0.33804  1.0000
  C   C133      1.0  0.85033  0.05949  0.33446  1.0000
  N   N39       1.0  0.85845  0.03445  0.33842  1.0000
  C   C134      1.0  0.16185  0.99045  0.34518  1.0000
  N   N40       1.0  0.18775  0.98490  0.34601  1.0000
  C   C135      1.0  0.19685  0.95990  0.34175  1.0000
  N   N41       1.0  0.17900  0.94017  0.33634  1.0000
  C   C136      1.0  0.15305  0.94491  0.33360  1.0000
  N   N42       1.0  0.14516  0.97002  0.33819  1.0000
  C   C137      1.0  0.49054  0.66075  0.33675  1.0000
  N   N43       1.0  0.48504  0.68674  0.33526  1.0000
  C   C138      1.0  0.46014  0.69593  0.33881  1.0000
  N   N44       1.0  0.44042  0.67809  0.34408  1.0000
  C   C139      1.0  0.44508  0.65205  0.34740  1.0000
  N   N45       1.0  0.47011  0.64408  0.34357  1.0000
  C   C140      1.0  0.51310  0.34158  0.33467  1.0000
  N   N46       1.0  0.51864  0.31561  0.33274  1.0000
  C   C141      1.0  0.54357  0.30646  0.33597  1.0000
  N   N47       1.0  0.56324  0.32434  0.34138  1.0000
  C   C142      1.0  0.55854  0.35037  0.34516  1.0000
  N   N48       1.0  0.53350  0.35830  0.34161  1.0000
  C   C143      1.0  0.66145  0.51341  0.33593  1.0000
  N   N49       1.0  0.68741  0.51881  0.33461  1.0000
  C   C144      1.0  0.69684  0.54374  0.33827  1.0000
  N   N50       1.0  0.67926  0.56360  0.34355  1.0000
  C   C145      1.0  0.65326  0.55902  0.34673  1.0000
  N   N51       1.0  0.64502  0.53395  0.34276  1.0000
  C   C146      1.0  0.34227  0.48898  0.33502  1.0000
  N   N52       1.0  0.31631  0.48358  0.33302  1.0000
  C   C147      1.0  0.30687  0.45864  0.33614  1.0000
  N   N53       1.0  0.32444  0.43878  0.34160  1.0000
  C   C148      1.0  0.35045  0.44335  0.34544  1.0000
  N   N54       1.0  0.35868  0.46843  0.34195  1.0000
  C   C149      1.0  0.97804  0.55733  0.37138  1.0000
  C   C150      1.0  0.99818  0.53847  0.37327  1.0000
  C   C151      1.0  0.00915  0.46988  0.38228  1.0000
  C   C152      1.0  0.02792  0.44998  0.38211  1.0000
  H   H91       1.0  0.99276  0.46731  0.42035  1.0000
  H   H92       1.0  0.02457  0.43367  0.42006  1.0000
  H   H93       1.0  0.98182  0.57553  0.39662  1.0000
  N   N55       1.0  0.02142  0.54536  0.41026  1.0000
  H   H94       1.0  0.02430  0.56271  0.43494  1.0000
  H   H95       1.0  0.03541  0.53291  0.41785  1.0000
  C   C153      1.0  0.44638  0.97756  0.37112  1.0000
  C   C154      1.0  0.46540  0.99768  0.37300  1.0000
  C   C155      1.0  0.53389  0.00846  0.38216  1.0000
  C   C156      1.0  0.55390  0.02724  0.38182  1.0000
  H   H96       1.0  0.53629  0.99206  0.42049  1.0000
  H   H97       1.0  0.57011  0.02390  0.41995  1.0000
  H   H98       1.0  0.42826  0.98144  0.39618  1.0000
  N   N56       1.0  0.45875  0.02105  0.40970  1.0000
  H   H99       1.0  0.44147  0.02404  0.43422  1.0000
  H   H100      1.0  0.47132  0.03504  0.41725  1.0000
  C   C157      1.0  0.04941  0.22399  0.34466  1.0000
  C   C158      1.0  0.06059  0.27894  0.34630  1.0000
  C   C159      1.0  0.03671  0.26906  0.37917  1.0000
  C   C160      1.0  0.03113  0.24218  0.37749  1.0000
  H   H101      1.0  0.02319  0.28141  0.40608  1.0000
  H   H102      1.0  0.01371  0.23598  0.40312  1.0000
  C   C161      1.0  0.06557  0.30640  0.35294  1.0000
  C   C162      1.0  0.07617  0.36130  0.34964  1.0000
  C   C163      1.0  0.09173  0.34399  0.40025  1.0000
  C   C164      1.0  0.08645  0.31687  0.40488  1.0000
  H   H103      1.0  0.10702  0.35139  0.43632  1.0000
  N   N57       1.0  0.10157  0.30189  0.45927  1.0000
  H   H104      1.0  0.09796  0.28351  0.46883  1.0000
  H   H105      1.0  0.11548  0.30950  0.49513  1.0000
  C   C165      1.0  0.95398  0.78011  0.34240  1.0000
  C   C166      1.0  0.94251  0.72522  0.34328  1.0000
  C   C167      1.0  0.96648  0.73494  0.37600  1.0000
  C   C168      1.0  0.97221  0.76179  0.37468  1.0000
  H   H106      1.0  0.97997  0.72248  0.40259  1.0000
  H   H107      1.0  0.98967  0.76787  0.40024  1.0000
  C   C169      1.0  0.93738  0.69778  0.34966  1.0000
  C   C170      1.0  0.92667  0.64290  0.34663  1.0000
  C   C171      1.0  0.91114  0.66026  0.39716  1.0000
  C   C172      1.0  0.91649  0.68737  0.40170  1.0000
  H   H108      1.0  0.89590  0.65289  0.43355  1.0000
  N   N58       1.0  0.90147  0.70238  0.45629  1.0000
  H   H109      1.0  0.90515  0.72075  0.46588  1.0000
  H   H110      1.0  0.88757  0.69481  0.49227  1.0000
  C   C173      1.0  0.77940  0.04940  0.34416  1.0000
  C   C174      1.0  0.72465  0.06050  0.34570  1.0000
  C   C175      1.0  0.73442  0.03660  0.37882  1.0000
  C   C176      1.0  0.76119  0.03105  0.37720  1.0000
  H   H111      1.0  0.72205  0.02303  0.40593  1.0000
  H   H112      1.0  0.76731  0.01363  0.40307  1.0000
  C   C177      1.0  0.69729  0.06545  0.35232  1.0000
  C   C178      1.0  0.64260  0.07599  0.34899  1.0000
  C   C179      1.0  0.65994  0.09169  0.39930  1.0000
  C   C180      1.0  0.68696  0.08645  0.40395  1.0000
  H   H113      1.0  0.65264  0.10705  0.43520  1.0000
  N   N59       1.0  0.70197  0.10171  0.45809  1.0000
  H   H114      1.0  0.72028  0.09813  0.46768  1.0000
  H   H115      1.0  0.69445  0.11569  0.49376  1.0000
  C   C181      1.0  0.22407  0.95434  0.34158  1.0000
  C   C182      1.0  0.27868  0.94255  0.34244  1.0000
  C   C183      1.0  0.26921  0.96645  0.37667  1.0000
  C   C184      1.0  0.24251  0.97234  0.37536  1.0000
  H   H116      1.0  0.28175  0.97975  0.40443  1.0000
  H   H117      1.0  0.23660  0.98972  0.40212  1.0000
  C   C185      1.0  0.30597  0.93721  0.34895  1.0000
  C   C186      1.0  0.36057  0.92615  0.34617  1.0000
  C   C187      1.0  0.34299  0.91038  0.39522  1.0000
  C   C188      1.0  0.31601  0.91587  0.39961  1.0000
  H   H118      1.0  0.35009  0.89484  0.43069  1.0000
  N   N60       1.0  0.30078  0.90055  0.45280  1.0000
  H   H119      1.0  0.28250  0.90428  0.46231  1.0000
  H   H120      1.0  0.30811  0.88634  0.48786  1.0000
  C   C189      1.0  0.43096  0.73300  0.37296  1.0000
  C   C190      1.0  0.42502  0.75999  0.37456  1.0000
  C   C191      1.0  0.45372  0.82321  0.37787  1.0000
  C   C192      1.0  0.44857  0.85016  0.37755  1.0000
  H   H121      1.0  0.46897  0.81656  0.41559  1.0000
  H   H122      1.0  0.46013  0.86223  0.41517  1.0000
  H   H123      1.0  0.41782  0.72018  0.39996  1.0000
  N   N61       1.0  0.40228  0.76755  0.41334  1.0000
  H   H124      1.0  0.39034  0.75491  0.43958  1.0000
  H   H125      1.0  0.39782  0.78580  0.42078  1.0000
  C   C193      1.0  0.57294  0.26943  0.36863  1.0000
  C   C194      1.0  0.57893  0.24245  0.36991  1.0000
  C   C195      1.0  0.55009  0.17931  0.37463  1.0000
  C   C196      1.0  0.55515  0.15235  0.37465  1.0000
  H   H126      1.0  0.53491  0.18606  0.41249  1.0000
  H   H127      1.0  0.54361  0.14037  0.41265  1.0000
  H   H128      1.0  0.58615  0.28226  0.39526  1.0000
  N   N62       1.0  0.60179  0.23492  0.40795  1.0000
  H   H129      1.0  0.61379  0.24758  0.43382  1.0000
  H   H130      1.0  0.60629  0.21668  0.41525  1.0000
  C   C197      1.0  0.73417  0.57286  0.37171  1.0000
  C   C198      1.0  0.76116  0.57863  0.37330  1.0000
  C   C199      1.0  0.82383  0.54949  0.37802  1.0000
  C   C200      1.0  0.85076  0.55454  0.37762  1.0000
  H   H131      1.0  0.81702  0.53438  0.41643  1.0000
  H   H132      1.0  0.86265  0.54308  0.41594  1.0000
  H   H133      1.0  0.72155  0.58622  0.39812  1.0000
  N   N63       1.0  0.76898  0.60152  0.41124  1.0000
  H   H134      1.0  0.75652  0.61367  0.43693  1.0000
  H   H135      1.0  0.78723  0.60588  0.41861  1.0000
  C   C201      1.0  0.26944  0.42958  0.36872  1.0000
  C   C202      1.0  0.24243  0.42390  0.37002  1.0000
  C   C203      1.0  0.17997  0.45356  0.37439  1.0000
  C   C204      1.0  0.15301  0.44878  0.37424  1.0000
  H   H136      1.0  0.18694  0.46870  0.41235  1.0000
  H   H137      1.0  0.14124  0.46045  0.41228  1.0000
  H   H138      1.0  0.28199  0.41619  0.39539  1.0000
  N   N64       1.0  0.23450  0.40107  0.40808  1.0000
  H   H139      1.0  0.24689  0.38889  0.43396  1.0000
  H   H140      1.0  0.21623  0.39677  0.41536  1.0000
  C   C205      1.0  0.15143  0.01617  0.34940  1.0000
  C   C206      1.0  0.12791  0.06673  0.34439  1.0000
  C   C207      1.0  0.11414  0.04481  0.37706  1.0000
  C   C208      1.0  0.12559  0.02007  0.37896  1.0000
  H   H141      1.0  0.09522  0.04652  0.39782  1.0000
  H   H142      1.0  0.11454  0.00480  0.40163  1.0000
  C   C209      1.0  0.11375  0.09056  0.33691  1.0000
  C   C210      1.0  0.07889  0.13372  0.32960  1.0000
  C   C211      1.0  0.10035  0.13389  0.38881  1.0000
  C   C212      1.0  0.11755  0.11233  0.39514  1.0000
  H   H143      1.0  0.10229  0.14905  0.43311  1.0000
  N   N65       1.0  0.13641  0.11278  0.45918  1.0000
  H   H144      1.0  0.14819  0.09826  0.46800  1.0000
  H   H145      1.0  0.13849  0.12764  0.49926  1.0000
  C   C213      1.0  0.85255  0.98820  0.34922  1.0000
  C   C214      1.0  0.87607  0.93764  0.34422  1.0000
  C   C215      1.0  0.89015  0.95973  0.37378  1.0000
  C   C216      1.0  0.87869  0.98446  0.37568  1.0000
  H   H146      1.0  0.90926  0.95814  0.39245  1.0000
  H   H147      1.0  0.88995  0.99984  0.39624  1.0000
  C   C217      1.0  0.89011  0.91373  0.33712  1.0000
  C   C218      1.0  0.92471  0.87040  0.32950  1.0000
  C   C219      1.0  0.90378  0.87069  0.39088  1.0000
  C   C220      1.0  0.88673  0.89236  0.39737  1.0000
  H   H148      1.0  0.90218  0.85581  0.43649  1.0000
  N   N66       1.0  0.86846  0.89240  0.46342  1.0000
  H   H149      1.0  0.85684  0.90705  0.47247  1.0000
  H   H150      1.0  0.86668  0.87782  0.50484  1.0000
  C   C221      1.0  0.98795  0.15071  0.34798  1.0000
  C   C222      1.0  0.93720  0.12753  0.34287  1.0000
  C   C223      1.0  0.95908  0.11310  0.37112  1.0000
  C   C224      1.0  0.98391  0.12440  0.37306  1.0000
  H   H151      1.0  0.95725  0.09387  0.38892  1.0000
  H   H152      1.0  0.99911  0.11291  0.39278  1.0000
  C   C225      1.0  0.91312  0.11371  0.33599  1.0000
  C   C226      1.0  0.86942  0.07935  0.32875  1.0000
  C   C227      1.0  0.87021  0.10011  0.39101  1.0000
  C   C228      1.0  0.89207  0.11704  0.39725  1.0000
  H   H153      1.0  0.85560  0.10162  0.43745  1.0000
  N   N67       1.0  0.89260  0.13514  0.46406  1.0000
  H   H154      1.0  0.90738  0.14666  0.47294  1.0000
  H   H155      1.0  0.87823  0.13688  0.50613  1.0000
  C   C229      1.0  0.01558  0.85332  0.34761  1.0000
  C   C230      1.0  0.06623  0.87668  0.34240  1.0000
  C   C231      1.0  0.04445  0.89077  0.37339  1.0000
  C   C232      1.0  0.01966  0.87939  0.37536  1.0000
  H   H156      1.0  0.04630  0.90985  0.39307  1.0000
  H   H157      1.0  0.00450  0.89065  0.39701  1.0000
  C   C233      1.0  0.09021  0.89067  0.33529  1.0000
  C   C234      1.0  0.13380  0.92518  0.32805  1.0000
  C   C235      1.0  0.13346  0.90388  0.38819  1.0000
  C   C236      1.0  0.11168  0.88686  0.39447  1.0000
  H   H158      1.0  0.14841  0.90197  0.43316  1.0000
  N   N68       1.0  0.11163  0.86819  0.45939  1.0000
  H   H159      1.0  0.09692  0.85657  0.46829  1.0000
  H   H160      1.0  0.12628  0.86611  0.50010  1.0000
  C   C237      1.0  0.33868  0.53685  0.35941  1.0000
  C   C238      1.0  0.35013  0.56208  0.36416  1.0000
  C   C239      1.0  0.41116  0.59020  0.40816  1.0000
  C   C240      1.0  0.42842  0.61139  0.41104  1.0000
  H   H161      1.0  0.41450  0.57475  0.45021  1.0000
  H   H162      1.0  0.44372  0.61071  0.45496  1.0000
  H   H163      1.0  0.31989  0.53441  0.38068  1.0000
  N   N69       1.0  0.33565  0.58220  0.39619  1.0000
  H   H164      1.0  0.31767  0.57966  0.41474  1.0000
  H   H165      1.0  0.34277  0.59966  0.40262  1.0000
  C   C241      1.0  0.66499  0.46550  0.35954  1.0000
  C   C242      1.0  0.65352  0.44026  0.36376  1.0000
  C   C243      1.0  0.59245  0.41215  0.40687  1.0000
  C   C244      1.0  0.57517  0.39097  0.40933  1.0000
  H   H166      1.0  0.58911  0.42754  0.44916  1.0000
  H   H167      1.0  0.55986  0.39160  0.45323  1.0000
  H   H168      1.0  0.68376  0.46790  0.38104  1.0000
  N   N70       1.0  0.66796  0.42009  0.39556  1.0000
  H   H169      1.0  0.68593  0.42259  0.41431  1.0000
  H   H170      1.0  0.66083  0.40262  0.40161  1.0000
  C   C245      1.0  0.53839  0.66498  0.35826  1.0000
  C   C246      1.0  0.56362  0.65380  0.36237  1.0000
  C   C247      1.0  0.59221  0.59329  0.41011  1.0000
  C   C248      1.0  0.61336  0.57613  0.41282  1.0000
  H   H171      1.0  0.57712  0.59017  0.45376  1.0000
  H   H172      1.0  0.61300  0.56111  0.45816  1.0000
  H   H173      1.0  0.53599  0.68395  0.37792  1.0000
  N   N71       1.0  0.58379  0.66877  0.39163  1.0000
  H   H174      1.0  0.58129  0.68692  0.40867  1.0000
  H   H175      1.0  0.60127  0.66187  0.39738  1.0000
  C   C249      1.0  0.46531  0.33735  0.35746  1.0000
  C   C250      1.0  0.44007  0.34852  0.36189  1.0000
  C   C251      1.0  0.41159  0.40916  0.40840  1.0000
  C   C252      1.0  0.39047  0.42636  0.41106  1.0000
  H   H176      1.0  0.42678  0.41239  0.45153  1.0000
  H   H177      1.0  0.39096  0.44150  0.45589  1.0000
  H   H178      1.0  0.46777  0.31843  0.37774  1.0000
  N   N72       1.0  0.41999  0.33362  0.39227  1.0000
  H   H179      1.0  0.42255  0.31553  0.40988  1.0000
  H   H180      1.0  0.40252  0.34053  0.39828  1.0000
