data_image0
_chemical_formula_structural       NC3H3C6H4C6H4C2HNC5H4C5H4C2HCNHC3H3C13H6C13H5NCNCNCHNCHCNCHCNCHCNCHC3H2NC3H3C3H3NC3H3N3C3H3NC3H3NC3H3NC3H3NC3H3NC3H4C24H17C24H15C24H15C24H15C24H15C24H15C24H15C24H15C24H15C24H15NC3H3NC3H3C3H3NC3H3NC3H3NC3H3NCHCNCHNCNCHCNCHC2HCNCHCNCHCNCHCNCHCNCHCNCH
_chemical_formula_sum              "N36 C378 H252"
_cell_length_a       75.4838
_cell_length_b       75.4838
_cell_length_c       14.9264
_cell_angle_alpha    90
_cell_angle_beta     90
_cell_angle_gamma    120

_space_group_name_H-M_alt    "P 1"
_space_group_IT_number       1

loop_
  _space_group_symop_operation_xyz
  'x, y, z'

loop_
  _atom_site_type_symbol
  _atom_site_label
  _atom_site_symmetry_multiplicity
  _atom_site_fract_x
  _atom_site_fract_y
  _atom_site_fract_z
  _atom_site_occupancy
  N   N1        1.0  0.01088  0.80570  0.26166  1.0000
  C   C1        1.0  0.00823  0.19138  0.25080  1.0000
  C   C2        1.0  0.02050  0.20104  0.32730  1.0000
  C   C3        1.0  0.01642  0.19063  0.16177  1.0000
  H   H1        1.0  0.00416  0.18083  0.11571  1.0000
  H   H2        1.0  0.02678  0.18455  0.16800  1.0000
  H   H3        1.0  0.02464  0.20589  0.13262  1.0000
  C   C4        1.0  0.08617  0.23385  0.33306  1.0000
  C   C5        1.0  0.07461  0.21680  0.38962  1.0000
  C   C6        1.0  0.05306  0.20612  0.38788  1.0000
  C   C7        1.0  0.04227  0.21187  0.32824  1.0000
  C   C8        1.0  0.05371  0.22905  0.27258  1.0000
  C   C9        1.0  0.07524  0.23982  0.27492  1.0000
  H   H4        1.0  0.08180  0.21219  0.43418  1.0000
  H   H5        1.0  0.04530  0.19389  0.42988  1.0000
  H   H6        1.0  0.08291  0.25199  0.23255  1.0000
  H   H7        1.0  0.04644  0.23413  0.23085  1.0000
  C   C10       1.0  0.08696  0.84090  0.34150  1.0000
  C   C11       1.0  0.07584  0.82477  0.40278  1.0000
  C   C12       1.0  0.05429  0.81390  0.40305  1.0000
  C   C13       1.0  0.04289  0.81852  0.34146  1.0000
  C   C14       1.0  0.05409  0.83454  0.27952  1.0000
  C   C15       1.0  0.07563  0.84561  0.28003  1.0000
  H   H8        1.0  0.04706  0.80216  0.44779  1.0000
  H   H9        1.0  0.08338  0.82090  0.44882  1.0000
  H   H10       1.0  0.04665  0.83855  0.23361  1.0000
  H   H11       1.0  0.08301  0.85691  0.23338  1.0000
  C   C16       1.0  0.02097  0.80732  0.33960  1.0000
  C   C17       1.0  0.00848  0.79777  0.41510  1.0000
  H   H12       1.0  0.01455  0.79868  0.47719  1.0000
  N   N2        1.0  0.01061  0.19914  0.40602  1.0000
  C   C18       1.0  0.14094  0.24486  0.34066  1.0000
  C   C19       1.0  0.14090  0.27763  0.33978  1.0000
  C   C20       1.0  0.11927  0.26648  0.33611  1.0000
  C   C21       1.0  0.10810  0.24482  0.33536  1.0000
  C   C22       1.0  0.11929  0.23434  0.33717  1.0000
  H   H13       1.0  0.13594  0.21401  0.23312  1.0000
  H   H14       1.0  0.13592  0.30336  0.23142  1.0000
  H   H15       1.0  0.11150  0.21868  0.33589  1.0000
  H   H16       1.0  0.11146  0.27433  0.33707  1.0000
  C   C23       1.0  0.10887  0.85190  0.34089  1.0000
  C   C24       1.0  0.12002  0.84141  0.34260  1.0000
  C   C25       1.0  0.14166  0.85192  0.33958  1.0000
  C   C26       1.0  0.14166  0.88473  0.33553  1.0000
  C   C27       1.0  0.12000  0.87355  0.33748  1.0000
  H   H17       1.0  0.13539  0.91105  0.43448  1.0000
  H   H18       1.0  0.13684  0.82142  0.44900  1.0000
  H   H19       1.0  0.11220  0.82574  0.34241  1.0000
  H   H20       1.0  0.11213  0.88134  0.33632  1.0000
  C   C28       1.0  0.18494  0.36545  0.34221  1.0000
  C   C29       1.0  0.18880  0.37794  0.26592  1.0000
  H   H21       1.0  0.18410  0.37187  0.20346  1.0000
  C   C30       1.0  0.18542  0.80787  0.33967  1.0000
  N   N3        1.0  0.18710  0.19303  0.26165  1.0000
  H   H22       1.0  0.18675  0.17604  0.11595  1.0000
  C   C31       1.0  0.18822  0.98461  0.25117  1.0000
  C   C32       1.0  0.18561  0.97233  0.32763  1.0000
  C   C33       1.0  0.17927  0.97643  0.16214  1.0000
  H   H23       1.0  0.18173  0.98871  0.11612  1.0000
  H   H24       1.0  0.16282  0.96609  0.16837  1.0000
  H   H25       1.0  0.18629  0.96821  0.13291  1.0000
  C   C34       1.0  0.15142  0.26651  0.34257  1.0000
  C   C35       1.0  0.15184  0.29953  0.34022  1.0000
  C   C36       1.0  0.16770  0.31068  0.40265  1.0000
  C   C37       1.0  0.17835  0.33222  0.40337  1.0000
  C   C38       1.0  0.17391  0.34356  0.34063  1.0000
  C   C39       1.0  0.15805  0.33234  0.27809  1.0000
  C   C40       1.0  0.14716  0.31079  0.27826  1.0000
  C   C41       1.0  0.15194  0.23395  0.34127  1.0000
  C   C42       1.0  0.16806  0.23896  0.40261  1.0000
  C   C43       1.0  0.17892  0.22827  0.40295  1.0000
  C   C44       1.0  0.17430  0.21225  0.34133  1.0000
  C   C45       1.0  0.15830  0.20744  0.27934  1.0000
  C   C46       1.0  0.14724  0.21793  0.27977  1.0000
  H   H26       1.0  0.17193  0.25037  0.44866  1.0000
  H   H27       1.0  0.15429  0.19599  0.23342  1.0000
  H   H28       1.0  0.15388  0.33972  0.23264  1.0000
  H   H29       1.0  0.18971  0.33958  0.44978  1.0000
  H   H30       1.0  0.17141  0.30318  0.44951  1.0000
  H   H31       1.0  0.16709  0.27436  0.34255  1.0000
  C   C47       1.0  0.15215  0.87356  0.33603  1.0000
  C   C48       1.0  0.15262  0.84098  0.33951  1.0000
  C   C49       1.0  0.14799  0.82513  0.40180  1.0000
  C   C50       1.0  0.15889  0.81448  0.40200  1.0000
  C   C51       1.0  0.17456  0.81891  0.33874  1.0000
  C   C52       1.0  0.17912  0.83477  0.27631  1.0000
  C   C53       1.0  0.16847  0.84566  0.27705  1.0000
  C   C54       1.0  0.15264  0.90667  0.33321  1.0000
  C   C55       1.0  0.14718  0.91824  0.38984  1.0000
  C   C56       1.0  0.15809  0.93978  0.38820  1.0000
  C   C57       1.0  0.17463  0.95056  0.32853  1.0000
  C   C58       1.0  0.18033  0.93911  0.27275  1.0000
  C   C59       1.0  0.16953  0.91758  0.27501  1.0000
  H   H32       1.0  0.15365  0.94756  0.43026  1.0000
  H   H33       1.0  0.17401  0.90990  0.23261  1.0000
  H   H34       1.0  0.17223  0.85692  0.23031  1.0000
  H   H35       1.0  0.15494  0.80311  0.44833  1.0000
  H   H36       1.0  0.16781  0.88136  0.33683  1.0000
  N   N4        1.0  0.18823  0.80052  0.41839  1.0000
  C   C60       1.0  0.18549  0.20151  0.33955  1.0000
  N   N5        1.0  0.19960  0.39858  0.27494  1.0000
  C   C61       1.0  0.62724  0.80699  0.33918  1.0000
  N   N6        1.0  0.59419  0.78923  0.27090  1.0000
  C   C62       1.0  0.61484  0.79909  0.26218  1.0000
  H   H37       1.0  0.62099  0.80106  0.19955  1.0000
  N   N7        1.0  0.20367  0.79311  0.27120  1.0000
  C   C63       1.0  0.19384  0.80395  0.26286  1.0000
  H   H38       1.0  0.19229  0.80857  0.20052  1.0000
  C   C64       1.0  0.81344  0.62140  0.34218  1.0000
  N   N8        1.0  0.79877  0.58826  0.27495  1.0000
  C   C65       1.0  0.80960  0.60891  0.26592  1.0000
  H   H39       1.0  0.81431  0.61497  0.20346  1.0000
  C   C66       1.0  0.37124  0.17981  0.33916  1.0000
  N   N9        1.0  0.40427  0.19764  0.27073  1.0000
  C   C67       1.0  0.38362  0.18777  0.26213  1.0000
  H   H40       1.0  0.37745  0.18585  0.19956  1.0000
  C   C68       1.0  0.81292  0.17893  0.34031  1.0000
  N   N10       1.0  0.79468  0.19371  0.27185  1.0000
  C   C69       1.0  0.80454  0.18290  0.26348  1.0000
  H   H41       1.0  0.80611  0.17830  0.20113  1.0000
  C   C70       1.0  0.19731  0.18255  0.25102  1.0000
  C   C71       1.0  0.20699  0.17997  0.32753  1.0000
  C   C72       1.0  0.19657  0.17361  0.16201  1.0000
  H   H42       1.0  0.19051  0.15716  0.16828  1.0000
  H   H43       1.0  0.21183  0.18066  0.13284  1.0000
  N   N11       1.0  0.79975  0.98160  0.26170  1.0000
  C   C73       1.0  0.81025  0.00228  0.25103  1.0000
  C   C74       1.0  0.81286  0.01455  0.32752  1.0000
  C   C75       1.0  0.81922  0.01048  0.16202  1.0000
  H   H44       1.0  0.81675  0.99821  0.11596  1.0000
  H   H45       1.0  0.83566  0.02082  0.16829  1.0000
  H   H46       1.0  0.81220  0.01871  0.13283  1.0000
  C   C76       1.0  0.99020  0.79546  0.25097  1.0000
  C   C77       1.0  0.97793  0.78580  0.32747  1.0000
  C   C78       1.0  0.98199  0.79621  0.16195  1.0000
  H   H47       1.0  0.99425  0.80602  0.11589  1.0000
  H   H48       1.0  0.97162  0.80227  0.16819  1.0000
  H   H49       1.0  0.97378  0.78095  0.13278  1.0000
  N   N12       1.0  0.81143  0.79389  0.26157  1.0000
  C   C79       1.0  0.80123  0.80437  0.25089  1.0000
  C   C80       1.0  0.79154  0.80695  0.32736  1.0000
  C   C81       1.0  0.80199  0.81333  0.16187  1.0000
  H   H50       1.0  0.81181  0.81090  0.11585  1.0000
  H   H51       1.0  0.80805  0.82977  0.16815  1.0000
  H   H52       1.0  0.78673  0.80628  0.13264  1.0000
  N   N13       1.0  0.19873  0.00530  0.26190  1.0000
  N   N14       1.0  0.98754  0.18117  0.26152  1.0000
  N   N15       1.0  0.22742  0.61543  0.24845  1.0000
  C   C82       1.0  0.22713  0.59727  0.24757  1.0000
  C   C83       1.0  0.22432  0.58705  0.33084  1.0000
  C   C84       1.0  0.23204  0.59093  0.16166  1.0000
  H   H53       1.0  0.23574  0.60243  0.10962  1.0000
  H   H54       1.0  0.21897  0.57670  0.13859  1.0000
  H   H55       1.0  0.24521  0.58879  0.16989  1.0000
  N   N16       1.0  0.37677  0.59984  0.24392  1.0000
  C   C85       1.0  0.39488  0.61775  0.24181  1.0000
  C   C86       1.0  0.40577  0.62490  0.32381  1.0000
  C   C87       1.0  0.40038  0.62929  0.15656  1.0000
  H   H56       1.0  0.38837  0.62167  0.10636  1.0000
  H   H57       1.0  0.41434  0.63049  0.12954  1.0000
  H   H58       1.0  0.40264  0.64458  0.16735  1.0000
  N   N17       1.0  0.39415  0.76472  0.27345  1.0000
  C   C88       1.0  0.37627  0.76483  0.26392  1.0000
  C   C89       1.0  0.36768  0.76845  0.34180  1.0000
  C   C90       1.0  0.36619  0.75909  0.17527  1.0000
  H   H59       1.0  0.37480  0.75517  0.12835  1.0000
  H   H60       1.0  0.36518  0.77186  0.14693  1.0000
  H   H61       1.0  0.35086  0.74586  0.18162  1.0000
  N   N18       1.0  0.77098  0.37148  0.24893  1.0000
  C   C91       1.0  0.77121  0.38960  0.24810  1.0000
  C   C92       1.0  0.77387  0.39973  0.33148  1.0000
  C   C93       1.0  0.76634  0.39597  0.16213  1.0000
  H   H62       1.0  0.76273  0.38450  0.11001  1.0000
  H   H63       1.0  0.77941  0.41022  0.13929  1.0000
  H   H64       1.0  0.75314  0.39806  0.17016  1.0000
  N   N19       1.0  0.62137  0.38738  0.24357  1.0000
  C   C94       1.0  0.60322  0.36952  0.24150  1.0000
  C   C95       1.0  0.59229  0.36245  0.32347  1.0000
  C   C96       1.0  0.59775  0.35791  0.15643  1.0000
  H   H65       1.0  0.60978  0.36548  0.10629  1.0000
  H   H66       1.0  0.58381  0.35672  0.12910  1.0000
  H   H67       1.0  0.59545  0.34262  0.16757  1.0000
  N   N20       1.0  0.60420  0.22224  0.27286  1.0000
  C   C97       1.0  0.62204  0.22203  0.26319  1.0000
  C   C98       1.0  0.63077  0.21869  0.34127  1.0000
  C   C99       1.0  0.63191  0.22741  0.17407  1.0000
  H   H68       1.0  0.62324  0.23121  0.12700  1.0000
  H   H69       1.0  0.63280  0.21451  0.14656  1.0000
  H   H70       1.0  0.64728  0.24062  0.17940  1.0000
  H   H71       1.0  0.19065  0.23277  0.44770  1.0000
  C   C100      1.0  0.74778  0.88362  0.34068  1.0000
  C   C101      1.0  0.72613  0.87247  0.34220  1.0000
  C   C102      1.0  0.71501  0.85083  0.33894  1.0000
  C   C103      1.0  0.72614  0.84033  0.33538  1.0000
  C   C104      1.0  0.74780  0.85081  0.33518  1.0000
  C   C105      1.0  0.75829  0.87247  0.33732  1.0000
  C   C106      1.0  0.69312  0.83988  0.33873  1.0000
  C   C107      1.0  0.68189  0.84430  0.40185  1.0000
  C   C108      1.0  0.66035  0.83338  0.40210  1.0000
  C   C109      1.0  0.64912  0.81790  0.33805  1.0000
  C   C110      1.0  0.66042  0.81356  0.27471  1.0000
  C   C111      1.0  0.68196  0.82422  0.27546  1.0000
  C   C112      1.0  0.75871  0.90553  0.34134  1.0000
  C   C113      1.0  0.75371  0.91665  0.40262  1.0000
  C   C114      1.0  0.76444  0.93820  0.40299  1.0000
  C   C115      1.0  0.78048  0.94959  0.34141  1.0000
  C   C116      1.0  0.78527  0.93837  0.27948  1.0000
  C   C117      1.0  0.77475  0.91683  0.27990  1.0000
  C   C118      1.0  0.75875  0.83983  0.33297  1.0000
  C   C119      1.0  0.77577  0.84529  0.38971  1.0000
  C   C120      1.0  0.78644  0.83441  0.38805  1.0000
  C   C121      1.0  0.78071  0.81789  0.32830  1.0000
  C   C122      1.0  0.76357  0.81218  0.27246  1.0000
  C   C123      1.0  0.75281  0.82296  0.27473  1.0000
  H   H72       1.0  0.75995  0.94546  0.44768  1.0000
  H   H73       1.0  0.74228  0.90912  0.44861  1.0000
  H   H74       1.0  0.79674  0.94580  0.23360  1.0000
  H   H75       1.0  0.77867  0.90944  0.23330  1.0000
  H   H76       1.0  0.78035  0.85707  0.43440  1.0000
  H   H77       1.0  0.79864  0.83885  0.43020  1.0000
  H   H78       1.0  0.74066  0.81847  0.23224  1.0000
  H   H79       1.0  0.75849  0.79984  0.23069  1.0000
  H   H80       1.0  0.68947  0.82062  0.22814  1.0000
  H   H81       1.0  0.65308  0.80222  0.22829  1.0000
  H   H82       1.0  0.65291  0.83716  0.44905  1.0000
  H   H83       1.0  0.68934  0.85533  0.44957  1.0000
  H   H84       1.0  0.71828  0.88028  0.34215  1.0000
  H   H85       1.0  0.77395  0.88034  0.33632  1.0000
  H   H86       1.0  0.71826  0.82466  0.33600  1.0000
  H   H87       1.0  0.19268  0.94636  0.23101  1.0000
  H   H88       1.0  0.19061  0.83893  0.23055  1.0000
  C   C124      1.0  0.85751  0.74200  0.34071  1.0000
  C   C125      1.0  0.84702  0.72035  0.34261  1.0000
  C   C126      1.0  0.85752  0.70922  0.33979  1.0000
  C   C127      1.0  0.87916  0.72035  0.33617  1.0000
  C   C128      1.0  0.89034  0.74202  0.33547  1.0000
  C   C129      1.0  0.87916  0.75250  0.33727  1.0000
  C   C130      1.0  0.84657  0.68732  0.34020  1.0000
  C   C131      1.0  0.83071  0.67617  0.40258  1.0000
  C   C132      1.0  0.82005  0.65463  0.40333  1.0000
  C   C133      1.0  0.82449  0.64329  0.34058  1.0000
  C   C134      1.0  0.84035  0.65451  0.27806  1.0000
  C   C135      1.0  0.85125  0.67605  0.27823  1.0000
  C   C136      1.0  0.84652  0.75292  0.34128  1.0000
  C   C137      1.0  0.83040  0.74792  0.40261  1.0000
  C   C138      1.0  0.81955  0.75862  0.40289  1.0000
  C   C139      1.0  0.82419  0.77465  0.34130  1.0000
  C   C140      1.0  0.84020  0.77944  0.27933  1.0000
  C   C141      1.0  0.85125  0.76895  0.27981  1.0000
  C   C142      1.0  0.91227  0.75297  0.33322  1.0000
  C   C143      1.0  0.92382  0.77002  0.38983  1.0000
  C   C144      1.0  0.94537  0.78070  0.38808  1.0000
  C   C145      1.0  0.95616  0.77496  0.32842  1.0000
  C   C146      1.0  0.94473  0.75778  0.27276  1.0000
  C   C147      1.0  0.92320  0.74701  0.27507  1.0000
  H   H89       1.0  0.80782  0.75413  0.44765  1.0000
  H   H90       1.0  0.82652  0.73650  0.44863  1.0000
  H   H91       1.0  0.84422  0.79090  0.23343  1.0000
  H   H92       1.0  0.86254  0.77286  0.23315  1.0000
  H   H93       1.0  0.91663  0.77462  0.43438  1.0000
  H   H94       1.0  0.95313  0.79293  0.43010  1.0000
  H   H95       1.0  0.91553  0.73484  0.23269  1.0000
  H   H96       1.0  0.95200  0.75270  0.23101  1.0000
  H   H97       1.0  0.86251  0.68348  0.23146  1.0000
  H   H98       1.0  0.84452  0.64712  0.23265  1.0000
  H   H99       1.0  0.80868  0.64728  0.44969  1.0000
  H   H100      1.0  0.82700  0.68368  0.44946  1.0000
  H   H101      1.0  0.83135  0.71250  0.34250  1.0000
  H   H102      1.0  0.88696  0.76816  0.33600  1.0000
  H   H103      1.0  0.88696  0.71249  0.33714  1.0000
  C   C148      1.0  0.25068  0.10326  0.34113  1.0000
  C   C149      1.0  0.27233  0.11440  0.34273  1.0000
  C   C150      1.0  0.28347  0.13603  0.33939  1.0000
  C   C151      1.0  0.27235  0.14655  0.33579  1.0000
  C   C152      1.0  0.25069  0.13608  0.33561  1.0000
  C   C153      1.0  0.24019  0.11442  0.33774  1.0000
  C   C154      1.0  0.30536  0.14697  0.33910  1.0000
  C   C155      1.0  0.31660  0.14251  0.40201  1.0000
  C   C156      1.0  0.33814  0.15341  0.40213  1.0000
  C   C157      1.0  0.34936  0.16892  0.33815  1.0000
  C   C158      1.0  0.33805  0.17329  0.27501  1.0000
  C   C159      1.0  0.31651  0.16265  0.27589  1.0000
  C   C160      1.0  0.23975  0.08135  0.34176  1.0000
  C   C161      1.0  0.24474  0.07022  0.40305  1.0000
  C   C162      1.0  0.23402  0.04867  0.40331  1.0000
  C   C163      1.0  0.21798  0.03729  0.34172  1.0000
  C   C164      1.0  0.21320  0.04852  0.27979  1.0000
  C   C165      1.0  0.22371  0.07006  0.28028  1.0000
  C   C166      1.0  0.23975  0.14707  0.33335  1.0000
  C   C167      1.0  0.22272  0.14162  0.39005  1.0000
  C   C168      1.0  0.21206  0.15250  0.38830  1.0000
  C   C169      1.0  0.21780  0.16903  0.32855  1.0000
  C   C170      1.0  0.23496  0.17473  0.27276  1.0000
  C   C171      1.0  0.24570  0.16394  0.27508  1.0000
  H   H104      1.0  0.23850  0.04141  0.44804  1.0000
  H   H105      1.0  0.25616  0.07774  0.44905  1.0000
  H   H106      1.0  0.20174  0.04109  0.23386  1.0000
  H   H107      1.0  0.21981  0.07745  0.23363  1.0000
  H   H108      1.0  0.21813  0.12984  0.43471  1.0000
  H   H109      1.0  0.19985  0.14806  0.43040  1.0000
  H   H110      1.0  0.25786  0.16842  0.23263  1.0000
  H   H111      1.0  0.24004  0.18707  0.23099  1.0000
  H   H112      1.0  0.30899  0.16627  0.22871  1.0000
  H   H113      1.0  0.34539  0.18465  0.22867  1.0000
  H   H114      1.0  0.34558  0.14961  0.44898  1.0000
  H   H115      1.0  0.30916  0.13148  0.44973  1.0000
  H   H116      1.0  0.28018  0.10657  0.34253  1.0000
  H   H117      1.0  0.22453  0.10656  0.33671  1.0000
  H   H118      1.0  0.28023  0.16221  0.33644  1.0000
  C   C172      1.0  0.88956  0.13499  0.34100  1.0000
  C   C173      1.0  0.87839  0.14547  0.34290  1.0000
  C   C174      1.0  0.85675  0.13495  0.33989  1.0000
  C   C175      1.0  0.84627  0.11332  0.33623  1.0000
  C   C176      1.0  0.85677  0.10215  0.33563  1.0000
  C   C177      1.0  0.87843  0.11335  0.33752  1.0000
  C   C178      1.0  0.84577  0.14587  0.33991  1.0000
  C   C179      1.0  0.85037  0.16170  0.40234  1.0000
  C   C180      1.0  0.83947  0.17234  0.40260  1.0000
  C   C181      1.0  0.82379  0.16791  0.33934  1.0000
  C   C182      1.0  0.81926  0.15208  0.27679  1.0000
  C   C183      1.0  0.82992  0.14120  0.27747  1.0000
  C   C184      1.0  0.91147  0.14600  0.34150  1.0000
  C   C185      1.0  0.92260  0.16213  0.40281  1.0000
  C   C186      1.0  0.94415  0.17299  0.40300  1.0000
  C   C187      1.0  0.95554  0.16837  0.34133  1.0000
  C   C188      1.0  0.94432  0.15236  0.27939  1.0000
  C   C189      1.0  0.92278  0.14130  0.27991  1.0000
  C   C190      1.0  0.84579  0.08022  0.33326  1.0000
  C   C191      1.0  0.85127  0.06865  0.38983  1.0000
  C   C192      1.0  0.84038  0.04710  0.38811  1.0000
  C   C193      1.0  0.82383  0.03632  0.32847  1.0000
  C   C194      1.0  0.81811  0.04777  0.27278  1.0000
  C   C195      1.0  0.82891  0.06931  0.27508  1.0000
  H   H119      1.0  0.95139  0.18472  0.44776  1.0000
  H   H120      1.0  0.91506  0.16600  0.44889  1.0000
  H   H121      1.0  0.95176  0.14835  0.23343  1.0000
  H   H122      1.0  0.91539  0.12999  0.23331  1.0000
  H   H123      1.0  0.86307  0.07583  0.43442  1.0000
  H   H124      1.0  0.84483  0.03932  0.43013  1.0000
  H   H125      1.0  0.82442  0.07698  0.23271  1.0000
  H   H126      1.0  0.80577  0.04052  0.23102  1.0000
  H   H127      1.0  0.82618  0.12997  0.23064  1.0000
  H   H128      1.0  0.80777  0.14791  0.23104  1.0000
  H   H129      1.0  0.84339  0.18369  0.44901  1.0000
  H   H130      1.0  0.86154  0.16542  0.44951  1.0000
  H   H131      1.0  0.88620  0.16114  0.34273  1.0000
  H   H132      1.0  0.88631  0.10556  0.33626  1.0000
  H   H133      1.0  0.83061  0.10551  0.33711  1.0000
  C   C196      1.0  0.25122  0.52932  0.34769  1.0000
  C   C197      1.0  0.24060  0.50769  0.35000  1.0000
  C   C198      1.0  0.25091  0.49636  0.34131  1.0000
  C   C199      1.0  0.27247  0.50747  0.32899  1.0000
  C   C200      1.0  0.28342  0.52903  0.32359  1.0000
  C   C201      1.0  0.27256  0.53962  0.33338  1.0000
  C   C202      1.0  0.23994  0.47437  0.34505  1.0000
  C   C203      1.0  0.22051  0.46265  0.30407  1.0000
  C   C204      1.0  0.20983  0.44111  0.30735  1.0000
  C   C205      1.0  0.21804  0.43035  0.35251  1.0000
  C   C206      1.0  0.23761  0.44194  0.39167  1.0000
  C   C207      1.0  0.24824  0.46347  0.38869  1.0000
  C   C208      1.0  0.24129  0.54111  0.35593  1.0000
  C   C209      1.0  0.22519  0.53797  0.29769  1.0000
  C   C210      1.0  0.21861  0.55243  0.29243  1.0000
  C   C211      1.0  0.22798  0.57048  0.34474  1.0000
  C   C212      1.0  0.24297  0.57278  0.40782  1.0000
  C   C213      1.0  0.24949  0.55834  0.41332  1.0000
  C   C214      1.0  0.30502  0.54056  0.31193  1.0000
  C   C215      1.0  0.31350  0.55542  0.24340  1.0000
  C   C216      1.0  0.33444  0.57004  0.24288  1.0000
  C   C217      1.0  0.34776  0.57060  0.31128  1.0000
  C   C218      1.0  0.33933  0.55481  0.37647  1.0000
  C   C219      1.0  0.31834  0.54004  0.37696  1.0000
  H   H134      1.0  0.20744  0.55005  0.24729  1.0000
  H   H135      1.0  0.21918  0.52593  0.25385  1.0000
  H   H136      1.0  0.25038  0.58573  0.44610  1.0000
  H   H137      1.0  0.26125  0.56123  0.45600  1.0000
  H   H138      1.0  0.30424  0.55650  0.19620  1.0000
  H   H139      1.0  0.33946  0.58121  0.19493  1.0000
  H   H140      1.0  0.31264  0.52983  0.42888  1.0000
  H   H141      1.0  0.34822  0.55426  0.42680  1.0000
  H   H142      1.0  0.26217  0.47112  0.41971  1.0000
  H   H143      1.0  0.24463  0.43483  0.42093  1.0000
  H   H144      1.0  0.19583  0.43332  0.27688  1.0000
  H   H145      1.0  0.21404  0.46969  0.26956  1.0000
  H   H146      1.0  0.22516  0.50017  0.36151  1.0000
  H   H147      1.0  0.28044  0.55529  0.33001  1.0000
  H   H148      1.0  0.28033  0.49980  0.32019  1.0000
  C   C220      1.0  0.46331  0.70968  0.34923  1.0000
  C   C221      1.0  0.48494  0.72069  0.34480  1.0000
  C   C222      1.0  0.49623  0.74243  0.34108  1.0000
  C   C223      1.0  0.48503  0.75297  0.33994  1.0000
  C   C224      1.0  0.46349  0.74241  0.34520  1.0000
  C   C225      1.0  0.45293  0.72089  0.34872  1.0000
  C   C226      1.0  0.51826  0.75348  0.34217  1.0000
  C   C227      1.0  0.52985  0.74631  0.29582  1.0000
  C   C228      1.0  0.55140  0.75702  0.29856  1.0000
  C   C229      1.0  0.56233  0.77532  0.34840  1.0000
  C   C230      1.0  0.55087  0.78285  0.39251  1.0000
  C   C231      1.0  0.52935  0.77205  0.39037  1.0000
  C   C232      1.0  0.45158  0.68786  0.35310  1.0000
  C   C233      1.0  0.45414  0.67556  0.28876  1.0000
  C   C234      1.0  0.43978  0.65450  0.28160  1.0000
  C   C235      1.0  0.42236  0.64515  0.33786  1.0000
  C   C236      1.0  0.42074  0.65717  0.40657  1.0000
  C   C237      1.0  0.43510  0.67810  0.41416  1.0000
  C   C238      1.0  0.45205  0.75263  0.35121  1.0000
  C   C239      1.0  0.44048  0.75025  0.42923  1.0000
  C   C240      1.0  0.42583  0.75653  0.43073  1.0000
  C   C241      1.0  0.42201  0.76516  0.35394  1.0000
  C   C242      1.0  0.43411  0.76801  0.27675  1.0000
  C   C243      1.0  0.44901  0.76196  0.27538  1.0000
  H   H149      1.0  0.44178  0.64623  0.23249  1.0000
  H   H150      1.0  0.46566  0.68208  0.24249  1.0000
  H   H151      1.0  0.40830  0.65116  0.44826  1.0000
  H   H152      1.0  0.43270  0.68644  0.46180  1.0000
  H   H153      1.0  0.44180  0.74284  0.48410  1.0000
  H   H154      1.0  0.41686  0.75313  0.48659  1.0000
  H   H155      1.0  0.45657  0.76311  0.21682  1.0000
  H   H156      1.0  0.43163  0.77382  0.21920  1.0000
  H   H157      1.0  0.52187  0.77791  0.42591  1.0000
  H   H158      1.0  0.55807  0.79655  0.42536  1.0000
  H   H159      1.0  0.55908  0.75115  0.26448  1.0000
  H   H160      1.0  0.52269  0.73325  0.25821  1.0000
  H   H161      1.0  0.49255  0.71267  0.34836  1.0000
  H   H162      1.0  0.43724  0.71324  0.35014  1.0000
  H   H163      1.0  0.49256  0.76860  0.33656  1.0000
  C   C244      1.0  0.28286  0.74148  0.34060  1.0000
  C   C245      1.0  0.27191  0.75215  0.34247  1.0000
  C   C246      1.0  0.25024  0.74181  0.33456  1.0000
  C   C247      1.0  0.23977  0.72022  0.32337  1.0000
  C   C248      1.0  0.25037  0.70924  0.31850  1.0000
  C   C249      1.0  0.27183  0.72011  0.32750  1.0000
  C   C250      1.0  0.23923  0.75277  0.33881  1.0000
  C   C251      1.0  0.24683  0.77215  0.29748  1.0000
  C   C252      1.0  0.23600  0.78285  0.30150  1.0000
  C   C253      1.0  0.21717  0.77472  0.34776  1.0000
  C   C254      1.0  0.20929  0.75519  0.38726  1.0000
  C   C255      1.0  0.22017  0.74455  0.38358  1.0000
  C   C256      1.0  0.30451  0.75132  0.35094  1.0000
  C   C257      1.0  0.31786  0.76676  0.29099  1.0000
  C   C258      1.0  0.33893  0.77325  0.28982  1.0000
  C   C259      1.0  0.34720  0.76451  0.34842  1.0000
  C   C260      1.0  0.33402  0.75008  0.41226  1.0000
  C   C261      1.0  0.31305  0.74359  0.41341  1.0000
  C   C262      1.0  0.24028  0.68759  0.30942  1.0000
  C   C263      1.0  0.24629  0.67873  0.24111  1.0000
  C   C264      1.0  0.24012  0.65783  0.24304  1.0000
  C   C265      1.0  0.22799  0.64498  0.31398  1.0000
  C   C266      1.0  0.22105  0.65377  0.37929  1.0000
  C   C267      1.0  0.22704  0.67470  0.37712  1.0000
  H   H164      1.0  0.34806  0.78396  0.24372  1.0000
  H   H165      1.0  0.31215  0.77234  0.24348  1.0000
  H   H166      1.0  0.33928  0.74313  0.45501  1.0000
  H   H167      1.0  0.30383  0.73226  0.45728  1.0000
  H   H168      1.0  0.25621  0.68770  0.19202  1.0000
  H   H169      1.0  0.24594  0.65251  0.19490  1.0000
  H   H170      1.0  0.22295  0.68074  0.42923  1.0000
  H   H171      1.0  0.21210  0.64522  0.43150  1.0000
  H   H172      1.0  0.21398  0.73067  0.41500  1.0000
  H   H173      1.0  0.19526  0.74823  0.41743  1.0000
  H   H174      1.0  0.24214  0.79682  0.27078  1.0000
  H   H175      1.0  0.26025  0.77858  0.26223  1.0000
  H   H176      1.0  0.27985  0.76760  0.35366  1.0000
  H   H177      1.0  0.27962  0.71221  0.32528  1.0000
  H   H178      1.0  0.22422  0.71231  0.31567  1.0000
  C   C268      1.0  0.74699  0.45751  0.34816  1.0000
  C   C269      1.0  0.75766  0.47913  0.35043  1.0000
  C   C270      1.0  0.74738  0.49050  0.34156  1.0000
  C   C271      1.0  0.72584  0.47943  0.32898  1.0000
  C   C272      1.0  0.71484  0.45786  0.32368  1.0000
  C   C273      1.0  0.72566  0.44724  0.33369  1.0000
  C   C274      1.0  0.75838  0.51249  0.34528  1.0000
  C   C275      1.0  0.77782  0.52419  0.30439  1.0000
  C   C276      1.0  0.78851  0.54573  0.30758  1.0000
  C   C277      1.0  0.78031  0.55651  0.35256  1.0000
  C   C278      1.0  0.76072  0.54493  0.39161  1.0000
  C   C279      1.0  0.75009  0.52341  0.38875  1.0000
  C   C280      1.0  0.75689  0.44568  0.35652  1.0000
  C   C281      1.0  0.77305  0.44886  0.29858  1.0000
  C   C282      1.0  0.77963  0.43438  0.29335  1.0000
  C   C283      1.0  0.77018  0.41629  0.34537  1.0000
  C   C284      1.0  0.75516  0.41398  0.40829  1.0000
  C   C285      1.0  0.74864  0.42841  0.41372  1.0000
  C   C286      1.0  0.69325  0.44638  0.31182  1.0000
  C   C287      1.0  0.68474  0.43146  0.24356  1.0000
  C   C288      1.0  0.66378  0.41692  0.24295  1.0000
  C   C289      1.0  0.65044  0.41654  0.31087  1.0000
  C   C290      1.0  0.65890  0.43242  0.37569  1.0000
  C   C291      1.0  0.67992  0.44709  0.37631  1.0000
  H   H179      1.0  0.79080  0.43677  0.24826  1.0000
  H   H180      1.0  0.77908  0.46089  0.25472  1.0000
  H   H181      1.0  0.74771  0.40099  0.44634  1.0000
  H   H182      1.0  0.73684  0.42551  0.45622  1.0000
  H   H183      1.0  0.69400  0.43026  0.19667  1.0000
  H   H184      1.0  0.65871  0.40572  0.19516  1.0000
  H   H185      1.0  0.68563  0.45733  0.42814  1.0000
  H   H186      1.0  0.65002  0.43306  0.42578  1.0000
  H   H187      1.0  0.73615  0.51578  0.41973  1.0000
  H   H188      1.0  0.75371  0.55207  0.42082  1.0000
  H   H189      1.0  0.80253  0.55350  0.27721  1.0000
  H   H190      1.0  0.78430  0.51713  0.27000  1.0000
  H   H191      1.0  0.77309  0.48663  0.36206  1.0000
  H   H192      1.0  0.71775  0.43157  0.33037  1.0000
  H   H193      1.0  0.71801  0.48713  0.32011  1.0000
  C   C292      1.0  0.53504  0.27765  0.34874  1.0000
  C   C293      1.0  0.51341  0.26651  0.34419  1.0000
  C   C294      1.0  0.50225  0.24477  0.34045  1.0000
  C   C295      1.0  0.51359  0.23437  0.33934  1.0000
  C   C296      1.0  0.53513  0.24505  0.34471  1.0000
  C   C297      1.0  0.54555  0.26657  0.34828  1.0000
  C   C298      1.0  0.48023  0.23361  0.34152  1.0000
  C   C299      1.0  0.46855  0.24070  0.29533  1.0000
  C   C300      1.0  0.44700  0.22989  0.29816  1.0000
  C   C301      1.0  0.43616  0.21157  0.34797  1.0000
  C   C302      1.0  0.44770  0.20412  0.39187  1.0000
  C   C303      1.0  0.46922  0.21501  0.38964  1.0000
  C   C304      1.0  0.54663  0.29947  0.35276  1.0000
  C   C305      1.0  0.54402  0.31172  0.28838  1.0000
  C   C306      1.0  0.55832  0.33279  0.28119  1.0000
  C   C307      1.0  0.57569  0.34221  0.33771  1.0000
  C   C308      1.0  0.57732  0.33024  0.40661  1.0000
  C   C309      1.0  0.56303  0.30929  0.41418  1.0000
  C   C310      1.0  0.54668  0.23495  0.35098  1.0000
  C   C311      1.0  0.55859  0.23773  0.42830  1.0000
  C   C312      1.0  0.57317  0.23137  0.42989  1.0000
  C   C313      1.0  0.57660  0.22224  0.35384  1.0000
  C   C314      1.0  0.56421  0.21903  0.27731  1.0000
  C   C315      1.0  0.54937  0.22516  0.27593  1.0000
  H   H194      1.0  0.55632  0.34103  0.23193  1.0000
  H   H195      1.0  0.53257  0.30516  0.24178  1.0000
  H   H196      1.0  0.58976  0.33630  0.44835  1.0000
  H   H197      1.0  0.56549  0.30099  0.46177  1.0000
  H   H198      1.0  0.55749  0.24541  0.48265  1.0000
  H   H199      1.0  0.58235  0.23502  0.48515  1.0000
  H   H200      1.0  0.54154  0.22365  0.21782  1.0000
  H   H201      1.0  0.56642  0.21286  0.22026  1.0000
  H   H202      1.0  0.47677  0.20920  0.42506  1.0000
  H   H203      1.0  0.44057  0.19041  0.42469  1.0000
  H   H204      1.0  0.43926  0.23572  0.26426  1.0000
  H   H205      1.0  0.47564  0.25377  0.25774  1.0000
  H   H206      1.0  0.50572  0.27445  0.34785  1.0000
  H   H207      1.0  0.56124  0.27433  0.34974  1.0000
  H   H208      1.0  0.50615  0.21874  0.33595  1.0000
  C   C316      1.0  0.71557  0.24548  0.33965  1.0000
  C   C317      1.0  0.72649  0.23477  0.34187  1.0000
  C   C318      1.0  0.74816  0.24507  0.33440  1.0000
  C   C319      1.0  0.75868  0.26666  0.32327  1.0000
  C   C320      1.0  0.74813  0.27768  0.31796  1.0000
  C   C321      1.0  0.72666  0.26684  0.32647  1.0000
  C   C322      1.0  0.75913  0.23406  0.33904  1.0000
  C   C323      1.0  0.75153  0.21469  0.29764  1.0000
  C   C324      1.0  0.76234  0.20396  0.30183  1.0000
  C   C325      1.0  0.78112  0.21205  0.34842  1.0000
  C   C326      1.0  0.78899  0.23156  0.38809  1.0000
  C   C327      1.0  0.77814  0.24223  0.38419  1.0000
  C   C328      1.0  0.69393  0.23569  0.34994  1.0000
  C   C329      1.0  0.68052  0.22022  0.29028  1.0000
  C   C330      1.0  0.65946  0.21375  0.28929  1.0000
  C   C331      1.0  0.65124  0.22259  0.34766  1.0000
  C   C332      1.0  0.66449  0.23708  0.41116  1.0000
  C   C333      1.0  0.68545  0.24354  0.41220  1.0000
  C   C334      1.0  0.75826  0.29933  0.30909  1.0000
  C   C335      1.0  0.75242  0.30826  0.24048  1.0000
  C   C336      1.0  0.75851  0.32915  0.24277  1.0000
  C   C337      1.0  0.77043  0.34192  0.31435  1.0000
  C   C338      1.0  0.77723  0.33306  0.37998  1.0000
  C   C339      1.0  0.77128  0.31214  0.37755  1.0000
  H   H209      1.0  0.65028  0.20296  0.24359  1.0000
  H   H210      1.0  0.68618  0.21451  0.24314  1.0000
  H   H211      1.0  0.65930  0.24416  0.45356  1.0000
  H   H212      1.0  0.69470  0.25492  0.45576  1.0000
  H   H213      1.0  0.74263  0.29935  0.19090  1.0000
  H   H214      1.0  0.75282  0.33451  0.19425  1.0000
  H   H215      1.0  0.77526  0.30606  0.42984  1.0000
  H   H216      1.0  0.78603  0.34156  0.43264  1.0000
  H   H217      1.0  0.78432  0.25611  0.41565  1.0000
  H   H218      1.0  0.80300  0.23850  0.41846  1.0000
  H   H219      1.0  0.75622  0.19001  0.27098  1.0000
  H   H220      1.0  0.73816  0.20830  0.26209  1.0000
  H   H221      1.0  0.71851  0.21933  0.35319  1.0000
  H   H222      1.0  0.71891  0.27478  0.32400  1.0000
  H   H223      1.0  0.77425  0.27454  0.31594  1.0000
  N   N21       1.0  0.19237  0.37549  0.42115  1.0000
  C   C340      1.0  0.20322  0.39617  0.43168  1.0000
  C   C341      1.0  0.20721  0.40852  0.35399  1.0000
  C   C342      1.0  0.20872  0.40411  0.52416  1.0000
  H   H224      1.0  0.20161  0.39178  0.57328  1.0000
  H   H225      1.0  0.20353  0.41499  0.53763  1.0000
  H   H226      1.0  0.22522  0.41161  0.53364  1.0000
  N   N22       1.0  0.61715  0.80360  0.41843  1.0000
  C   C343      1.0  0.59646  0.79367  0.42870  1.0000
  C   C344      1.0  0.58417  0.78615  0.35031  1.0000
  C   C345      1.0  0.58850  0.79033  0.52145  1.0000
  H   H227      1.0  0.60078  0.79471  0.57028  1.0000
  H   H228      1.0  0.57735  0.77420  0.53180  1.0000
  H   H229      1.0  0.58134  0.79951  0.53463  1.0000
  C   C346      1.0  0.19808  0.78967  0.42825  1.0000
  C   C347      1.0  0.20620  0.78557  0.35004  1.0000
  C   C348      1.0  0.20075  0.78423  0.52053  1.0000
  H   H230      1.0  0.19570  0.79143  0.57002  1.0000
  H   H231      1.0  0.21684  0.78939  0.53312  1.0000
  H   H232      1.0  0.19174  0.76775  0.53036  1.0000
  N   N23       1.0  0.80600  0.61137  0.42113  1.0000
  C   C349      1.0  0.79514  0.59069  0.43167  1.0000
  C   C350      1.0  0.79114  0.57833  0.35400  1.0000
  C   C351      1.0  0.78961  0.58275  0.52416  1.0000
  H   H233      1.0  0.79673  0.59508  0.57327  1.0000
  H   H234      1.0  0.79479  0.57186  0.53768  1.0000
  H   H235      1.0  0.77312  0.57527  0.53358  1.0000
  N   N24       1.0  0.38136  0.18314  0.41831  1.0000
  C   C352      1.0  0.40205  0.19307  0.42845  1.0000
  C   C353      1.0  0.41432  0.20067  0.35003  1.0000
  C   C354      1.0  0.41003  0.19634  0.52114  1.0000
  H   H236      1.0  0.39777  0.19191  0.57008  1.0000
  H   H237      1.0  0.42119  0.21246  0.53170  1.0000
  H   H238      1.0  0.41720  0.18715  0.53397  1.0000
  N   N25       1.0  0.81006  0.18624  0.41908  1.0000
  C   C355      1.0  0.80019  0.19707  0.42896  1.0000
  C   C356      1.0  0.79209  0.20120  0.35073  1.0000
  C   C357      1.0  0.79746  0.20245  0.52126  1.0000
  H   H239      1.0  0.80249  0.19523  0.57073  1.0000
  H   H240      1.0  0.78136  0.19727  0.53370  1.0000
  H   H241      1.0  0.80645  0.21892  0.53127  1.0000
  N   N26       1.0  0.20508  0.18798  0.40622  1.0000
  C   C358      1.0  0.19503  0.19857  0.41509  1.0000
  H   H242      1.0  0.19412  0.20374  0.47715  1.0000
  C   C359      1.0  0.79125  0.97152  0.33961  1.0000
  N   N27       1.0  0.80484  0.00466  0.40621  1.0000
  C   C360      1.0  0.79419  0.98401  0.41510  1.0000
  H   H243      1.0  0.78903  0.97794  0.47719  1.0000
  N   N28       1.0  0.98783  0.78770  0.40619  1.0000
  C   C361      1.0  0.81302  0.78540  0.33948  1.0000
  N   N29       1.0  0.79342  0.79894  0.40606  1.0000
  C   C362      1.0  0.80347  0.78834  0.41498  1.0000
  H   H244      1.0  0.80435  0.78316  0.47705  1.0000
  C   C363      1.0  0.20722  0.01537  0.33984  1.0000
  N   N30       1.0  0.19362  0.98221  0.40635  1.0000
  C   C364      1.0  0.20426  0.00286  0.41530  1.0000
  H   H245      1.0  0.20942  0.00892  0.47741  1.0000
  C   C365      1.0  0.97746  0.17955  0.33946  1.0000
  C   C366      1.0  0.98995  0.18909  0.41496  1.0000
  H   H246      1.0  0.98389  0.18818  0.47705  1.0000
  C   C367      1.0  0.22470  0.62460  0.32148  1.0000
  N   N31       1.0  0.22191  0.59625  0.40463  1.0000
  C   C368      1.0  0.22143  0.61396  0.40326  1.0000
  H   H247      1.0  0.22041  0.61999  0.46292  1.0000
  C   C369      1.0  0.36824  0.58761  0.31672  1.0000
  N   N32       1.0  0.39727  0.61292  0.39736  1.0000
  C   C370      1.0  0.37961  0.59467  0.39696  1.0000
  H   H248      1.0  0.37413  0.58740  0.45668  1.0000
  C   C371      1.0  0.40492  0.76841  0.35098  1.0000
  N   N33       1.0  0.37840  0.77214  0.41951  1.0000
  C   C372      1.0  0.39661  0.77281  0.42683  1.0000
  H   H249      1.0  0.40343  0.77555  0.48826  1.0000
  C   C373      1.0  0.77367  0.36228  0.32197  1.0000
  N   N34       1.0  0.77626  0.39053  0.40529  1.0000
  C   C374      1.0  0.77685  0.37287  0.40383  1.0000
  H   H250      1.0  0.77773  0.36678  0.46353  1.0000
  C   C375      1.0  0.62991  0.39964  0.31627  1.0000
  N   N35       1.0  0.60079  0.37448  0.39689  1.0000
  C   C376      1.0  0.61849  0.39269  0.39642  1.0000
  H   H251      1.0  0.62397  0.40000  0.45608  1.0000
  C   C377      1.0  0.59360  0.21886  0.35072  1.0000
  N   N36       1.0  0.62020  0.21527  0.41928  1.0000
  C   C378      1.0  0.60204  0.21469  0.42677  1.0000
  H   H252      1.0  0.59534  0.21217  0.48841  1.0000
