data_image0
_chemical_formula_structural       C4HCO2HC3NH2OCNHCOHC2HCOC2NCNCNCNCNC4HC3NHCOHC2HC3HCONC2H2CO2HCNCHC4HCNCO2HC4HC3NHCO2HC4NHOHC4HC3NHCO2HC4HC3NHCO2HC4HC3NHCO2HCNC2H2CO2HCNC2H2CO2HCNC2H2CO2HCNC2H2CO2HCNC2H2CO2HC3NHC4HC3NHCO2HC4HC3NHCO2HC4HCO2C4HC3NHCO2HC4HC3NHCO2HCNCNCNCNCNCNCNCNCNCNCNCNCNCNCNCNCNCNCNCNCNCNCNCNCNCNCNCNCNCNCNC2H2CO2HCNC2H2CO2HNC2HCO2HCNC2H2CO2HCNC2H2CO2HCNC2H2CO2HC4HC3NHCO2HC4HC3NHCO2HC4HC3NHCO2HC4HC3NHCO2HC4HC3NHCO2HC2HOCNC2H2CO2HCNC2H2CO2HCNHOHCNC2H2CO2HCNC2H2CO2H
_chemical_formula_sum              "C252 H108 O72 N72"
_cell_length_a       59.3577
_cell_length_b       59.3577
_cell_length_c       14.9029
_cell_angle_alpha    90
_cell_angle_beta     90
_cell_angle_gamma    120

_space_group_name_H-M_alt    "P 1"
_space_group_IT_number       1

loop_
  _space_group_symop_operation_xyz
  'x, y, z'

loop_
  _atom_site_type_symbol
  _atom_site_label
  _atom_site_symmetry_multiplicity
  _atom_site_fract_x
  _atom_site_fract_y
  _atom_site_fract_z
  _atom_site_occupancy
  C   C1        1.0  0.08260  0.42087  0.32357  1.0000
  C   C2        1.0  0.02736  0.39222  0.33114  1.0000
  C   C3        1.0  0.04006  0.39761  0.24629  1.0000
  C   C4        1.0  0.06767  0.41247  0.24402  1.0000
  H   H1        1.0  0.07699  0.41873  0.18347  1.0000
  C   C5        1.0  0.02629  0.39172  0.16668  1.0000
  O   O1        1.0  0.03028  0.37906  0.11037  1.0000
  O   O2        1.0  0.01889  0.40685  0.14196  1.0000
  H   H2        1.0  0.01147  0.40586  0.08938  1.0000
  C   C6        1.0  0.01786  0.64051  0.34301  1.0000
  C   C7        1.0  0.07259  0.66004  0.34835  1.0000
  C   C8        1.0  0.06158  0.67268  0.30028  1.0000
  N   N1        1.0  0.03529  0.66242  0.29820  1.0000
  H   H3        1.0  0.07299  0.68874  0.26219  1.0000
  H   H4        1.0  0.00640  0.61682  0.08966  1.0000
  O   O3        1.0  0.08185  0.55982  0.48610  1.0000
  C   C9        1.0  0.06896  0.41391  0.40560  1.0000
  N   N2        1.0  0.04259  0.40065  0.40587  1.0000
  H   H5        1.0  0.07846  0.42094  0.46522  1.0000
  C   C10       1.0  0.00609  0.41900  0.43799  1.0000
  O   O4        1.0  0.01453  0.43985  0.39734  1.0000
  H   H6        1.0  0.01590  0.44153  0.33819  1.0000
  C   C11       1.0  0.02783  0.62746  0.39564  1.0000
  C   C12       1.0  0.05501  0.63743  0.39678  1.0000
  H   H7        1.0  0.06207  0.62754  0.43261  1.0000
  C   C13       1.0  0.01180  0.60381  0.43808  1.0000
  O   O5        1.0  0.01435  0.60249  0.51898  1.0000
  C   C14       1.0  0.15211  0.62836  0.30394  1.0000
  C   C15       1.0  0.10834  0.44203  0.32135  1.0000
  N   N3        1.0  0.13020  0.43992  0.32037  1.0000
  C   C16       1.0  0.13456  0.48815  0.32615  1.0000
  N   N4        1.0  0.11102  0.46607  0.32487  1.0000
  C   C17       1.0  0.09950  0.66758  0.34345  1.0000
  N   N5        1.0  0.11985  0.69245  0.33424  1.0000
  C   C18       1.0  0.14508  0.69759  0.33377  1.0000
  N   N6        1.0  0.14954  0.67724  0.34076  1.0000
  C   C19       1.0  0.12987  0.65236  0.34885  1.0000
  N   N7        1.0  0.10535  0.64828  0.35061  1.0000
  C   C20       1.0  0.13378  0.63082  0.35694  1.0000
  C   C21       1.0  0.13793  0.58531  0.36028  1.0000
  C   C22       1.0  0.11994  0.58722  0.41863  1.0000
  C   C23       1.0  0.11803  0.61002  0.41513  1.0000
  H   H8        1.0  0.10509  0.61163  0.45646  1.0000
  C   C24       1.0  0.13959  0.56226  0.35031  1.0000
  C   C25       1.0  0.13671  0.51315  0.33185  1.0000
  C   C26       1.0  0.11436  0.51566  0.34070  1.0000
  N   N8        1.0  0.11669  0.53938  0.34938  1.0000
  H   H9        1.0  0.09605  0.49980  0.34212  1.0000
  C   C27       1.0  0.10535  0.56824  0.48148  1.0000
  O   O6        1.0  0.11711  0.56641  0.54698  1.0000
  H   H10       1.0  0.10943  0.55597  0.59329  1.0000
  C   C28       1.0  0.17817  0.46059  0.32227  1.0000
  C   C29       1.0  0.17883  0.43727  0.31154  1.0000
  H   H11       1.0  0.16209  0.41989  0.30270  1.0000
  C   C30       1.0  0.16708  0.72315  0.33276  1.0000
  C   C31       1.0  0.19294  0.76732  0.26817  1.0000
  C   C32       1.0  0.16946  0.74292  0.27401  1.0000
  H   H12       1.0  0.15437  0.73890  0.23124  1.0000
  C   C33       1.0  0.19531  0.78498  0.20303  1.0000
  O   O7        1.0  0.17878  0.79156  0.19911  1.0000
  N   N9        1.0  0.15298  0.60595  0.30615  1.0000
  C   C34       1.0  0.16289  0.56126  0.33890  1.0000
  C   C35       1.0  0.16101  0.53659  0.33054  1.0000
  H   H13       1.0  0.17774  0.53569  0.32411  1.0000
  H   H14       1.0  0.16365  0.64249  0.25908  1.0000
  C   C36       1.0  0.18756  0.58313  0.33974  1.0000
  O   O8        1.0  0.19696  0.59257  0.26684  1.0000
  O   O9        1.0  0.19540  0.59867  0.40304  1.0000
  H   H15       1.0  0.18938  0.59470  0.45861  1.0000
  C   C37       1.0  0.15448  0.46154  0.32172  1.0000
  N   N10       1.0  0.15576  0.48512  0.32477  1.0000
  C   C38       1.0  0.18865  0.72922  0.38825  1.0000
  H   H16       1.0  0.18836  0.71604  0.43316  1.0000
  C   C39       1.0  0.29721  0.45779  0.33290  1.0000
  C   C40       1.0  0.24848  0.45638  0.32377  1.0000
  C   C41       1.0  0.25304  0.43946  0.26827  1.0000
  C   C42       1.0  0.27744  0.44039  0.27415  1.0000
  H   H17       1.0  0.28147  0.42932  0.23141  1.0000
  C   C43       1.0  0.22569  0.45907  0.32288  1.0000
  N   N11       1.0  0.20185  0.43744  0.31215  1.0000
  C   C44       1.0  0.23539  0.42417  0.20314  1.0000
  O   O10       1.0  0.22881  0.40105  0.19925  1.0000
  O   O11       1.0  0.23434  0.43540  0.13476  1.0000
  H   H18       1.0  0.22495  0.42731  0.08675  1.0000
  C   C45       1.0  0.56263  0.85329  0.33281  1.0000
  C   C46       1.0  0.56402  0.80596  0.32375  1.0000
  C   C47       1.0  0.58089  0.82740  0.26804  1.0000
  C   C48       1.0  0.57997  0.85088  0.27387  1.0000
  H   H19       1.0  0.59099  0.86595  0.23097  1.0000
  C   C49       1.0  0.56133  0.78048  0.32294  1.0000
  C   C50       1.0  0.55980  0.73143  0.32237  1.0000
  C   C51       1.0  0.58312  0.75541  0.31144  1.0000
  N   N12       1.0  0.58294  0.77825  0.31203  1.0000
  H   H20       1.0  0.60049  0.75604  0.30246  1.0000
  C   C52       1.0  0.59612  0.82501  0.20276  1.0000
  O   O12       1.0  0.61923  0.84154  0.19859  1.0000
  O   O13       1.0  0.58482  0.81268  0.13452  1.0000
  H   H21       1.0  0.59286  0.81135  0.08642  1.0000
  C   C53       1.0  0.21441  0.77187  0.32369  1.0000
  C   C54       1.0  0.23989  0.79466  0.32286  1.0000
  C   C55       1.0  0.28894  0.84218  0.32231  1.0000
  C   C56       1.0  0.26496  0.84152  0.31154  1.0000
  N   N13       1.0  0.24211  0.81851  0.31212  1.0000
  H   H22       1.0  0.26432  0.85827  0.30271  1.0000
  O   O14       1.0  0.20760  0.78603  0.13468  1.0000
  H   H23       1.0  0.20891  0.79542  0.08666  1.0000
  C   C57       1.0  0.72070  0.56502  0.33279  1.0000
  C   C58       1.0  0.76942  0.56642  0.32372  1.0000
  C   C59       1.0  0.76487  0.58334  0.26821  1.0000
  C   C60       1.0  0.74047  0.58242  0.27405  1.0000
  H   H24       1.0  0.73645  0.59348  0.23130  1.0000
  C   C61       1.0  0.79222  0.56373  0.32288  1.0000
  C   C62       1.0  0.83974  0.56221  0.32232  1.0000
  C   C63       1.0  0.83908  0.58553  0.31158  1.0000
  N   N14       1.0  0.81606  0.58535  0.31216  1.0000
  H   H25       1.0  0.85582  0.60291  0.30277  1.0000
  C   C64       1.0  0.78253  0.59863  0.20309  1.0000
  O   O15       1.0  0.78912  0.62175  0.19919  1.0000
  O   O16       1.0  0.78359  0.58740  0.13472  1.0000
  H   H26       1.0  0.79298  0.59548  0.08671  1.0000
  C   C65       1.0  0.45531  0.16951  0.33288  1.0000
  C   C66       1.0  0.45391  0.21683  0.32374  1.0000
  C   C67       1.0  0.43699  0.19536  0.26824  1.0000
  C   C68       1.0  0.43792  0.17188  0.27412  1.0000
  H   H27       1.0  0.42685  0.15679  0.23138  1.0000
  C   C69       1.0  0.45660  0.24232  0.32286  1.0000
  C   C70       1.0  0.45813  0.29136  0.32225  1.0000
  C   C71       1.0  0.43481  0.26738  0.31151  1.0000
  N   N15       1.0  0.43498  0.24454  0.31212  1.0000
  H   H28       1.0  0.41742  0.26674  0.30268  1.0000
  C   C72       1.0  0.42170  0.19771  0.20310  1.0000
  O   O17       1.0  0.39858  0.18118  0.19920  1.0000
  O   O18       1.0  0.43294  0.21000  0.13473  1.0000
  H   H29       1.0  0.42485  0.21130  0.08671  1.0000
  C   C73       1.0  0.85082  0.29963  0.33275  1.0000
  C   C74       1.0  0.80350  0.25091  0.32372  1.0000
  C   C75       1.0  0.82495  0.25547  0.26812  1.0000
  C   C76       1.0  0.84843  0.27987  0.27395  1.0000
  H   H30       1.0  0.86351  0.28390  0.23113  1.0000
  C   C77       1.0  0.77801  0.22812  0.32290  1.0000
  C   C78       1.0  0.72897  0.18060  0.32235  1.0000
  C   C79       1.0  0.75295  0.18126  0.31149  1.0000
  N   N16       1.0  0.77579  0.20428  0.31208  1.0000
  H   H31       1.0  0.75359  0.16452  0.30259  1.0000
  C   C80       1.0  0.82258  0.23782  0.20295  1.0000
  O   O19       1.0  0.83911  0.23124  0.19894  1.0000
  O   O20       1.0  0.81027  0.23678  0.13463  1.0000
  H   H32       1.0  0.80896  0.22740  0.08659  1.0000
  C   C81       1.0  0.39200  0.53762  0.30405  1.0000
  N   N17       1.0  0.41441  0.56089  0.30624  1.0000
  C   C82       1.0  0.45911  0.61550  0.33898  1.0000
  C   C83       1.0  0.48379  0.63829  0.33061  1.0000
  H   H33       1.0  0.48469  0.65592  0.32414  1.0000
  H   H34       1.0  0.37788  0.53504  0.25916  1.0000
  C   C84       1.0  0.43724  0.61831  0.33980  1.0000
  O   O21       1.0  0.42780  0.61826  0.26689  1.0000
  O   O22       1.0  0.42170  0.61062  0.40309  1.0000
  H   H35       1.0  0.42567  0.60857  0.45866  1.0000
  C   C85       1.0  0.48276  0.86821  0.30386  1.0000
  N   N18       1.0  0.45948  0.86735  0.30607  1.0000
  C   C86       1.0  0.40488  0.85743  0.33885  1.0000
  C   C87       1.0  0.38209  0.85932  0.33051  1.0000
  H   H36       1.0  0.36445  0.84259  0.32406  1.0000
  H   H37       1.0  0.48534  0.85668  0.25895  1.0000
  C   C88       1.0  0.40207  0.83276  0.33963  1.0000
  O   O23       1.0  0.40212  0.82337  0.26671  1.0000
  O   O24       1.0  0.40976  0.82490  0.40291  1.0000
  H   H38       1.0  0.41181  0.83092  0.45849  1.0000
  C   C89       1.0  0.86579  0.39444  0.30388  1.0000
  N   N19       1.0  0.86492  0.41684  0.30609  1.0000
  C   C90       1.0  0.85501  0.46153  0.33887  1.0000
  C   C91       1.0  0.85689  0.48621  0.33054  1.0000
  H   H39       1.0  0.84017  0.48712  0.32409  1.0000
  H   H40       1.0  0.85425  0.38031  0.25898  1.0000
  C   C92       1.0  0.83034  0.43967  0.33965  1.0000
  O   O25       1.0  0.82095  0.43024  0.26673  1.0000
  O   O26       1.0  0.82248  0.42412  0.40293  1.0000
  H   H41       1.0  0.82850  0.42808  0.45851  1.0000
  C   C93       1.0  0.62591  0.48519  0.30397  1.0000
  N   N20       1.0  0.60350  0.46192  0.30617  1.0000
  C   C94       1.0  0.55880  0.40731  0.33891  1.0000
  C   C95       1.0  0.53413  0.38451  0.33055  1.0000
  H   H42       1.0  0.53323  0.36688  0.32412  1.0000
  H   H43       1.0  0.64004  0.48777  0.25911  1.0000
  C   C96       1.0  0.58067  0.40451  0.33976  1.0000
  O   O27       1.0  0.59012  0.40455  0.26686  1.0000
  O   O28       1.0  0.59621  0.41220  0.40305  1.0000
  H   H44       1.0  0.59224  0.41425  0.45862  1.0000
  C   C97       1.0  0.53515  0.15455  0.30405  1.0000
  N   N21       1.0  0.55842  0.15542  0.30625  1.0000
  C   C98       1.0  0.61303  0.16534  0.33900  1.0000
  C   C99       1.0  0.63582  0.16346  0.33064  1.0000
  H   H45       1.0  0.65345  0.18018  0.32417  1.0000
  H   H46       1.0  0.53256  0.16609  0.25915  1.0000
  C   C100      1.0  0.61584  0.19001  0.33980  1.0000
  O   O29       1.0  0.61579  0.19940  0.26688  1.0000
  O   O30       1.0  0.60815  0.19787  0.40308  1.0000
  H   H47       1.0  0.60610  0.19185  0.45866  1.0000
  C   C101      1.0  0.00004  0.38231  0.34293  1.0000
  C   C102      1.0  0.94530  0.36275  0.34835  1.0000
  C   C103      1.0  0.95631  0.35013  0.30023  1.0000
  N   N22       1.0  0.98260  0.36040  0.29813  1.0000
  H   H48       1.0  0.94491  0.33406  0.26213  1.0000
  C   C104      1.0  0.59949  0.67554  0.32358  1.0000
  C   C105      1.0  0.62816  0.64902  0.33119  1.0000
  C   C106      1.0  0.62278  0.65633  0.24631  1.0000
  C   C107      1.0  0.60791  0.66907  0.24399  1.0000
  H   H49       1.0  0.60165  0.67214  0.18345  1.0000
  C   C108      1.0  0.63806  0.63160  0.34297  1.0000
  C   C109      1.0  0.65758  0.59639  0.34835  1.0000
  C   C110      1.0  0.67024  0.62004  0.30036  1.0000
  N   N23       1.0  0.65998  0.63608  0.29825  1.0000
  H   H50       1.0  0.68632  0.62471  0.26234  1.0000
  C   C111      1.0  0.62869  0.64846  0.16671  1.0000
  O   O31       1.0  0.64135  0.66511  0.11045  1.0000
  O   O32       1.0  0.61357  0.62594  0.14195  1.0000
  H   H51       1.0  0.61457  0.61951  0.08938  1.0000
  C   C112      1.0  0.34481  0.93775  0.32377  1.0000
  C   C113      1.0  0.37134  0.99296  0.33124  1.0000
  C   C114      1.0  0.36406  0.98025  0.24639  1.0000
  C   C115      1.0  0.35133  0.95265  0.24415  1.0000
  H   H52       1.0  0.34828  0.94332  0.18363  1.0000
  C   C116      1.0  0.38877  0.02029  0.34299  1.0000
  C   C117      1.0  0.42397  0.07502  0.34834  1.0000
  C   C118      1.0  0.40031  0.06402  0.30036  1.0000
  N   N24       1.0  0.38428  0.03773  0.29827  1.0000
  H   H53       1.0  0.39564  0.07543  0.26235  1.0000
  C   C119      1.0  0.37196  0.99403  0.16677  1.0000
  O   O33       1.0  0.35533  0.99003  0.11041  1.0000
  O   O34       1.0  0.39449  0.00143  0.14213  1.0000
  H   H54       1.0  0.40093  0.00885  0.08956  1.0000
  C   C120      1.0  0.93532  0.60193  0.32380  1.0000
  C   C121      1.0  0.99053  0.63060  0.33125  1.0000
  C   C122      1.0  0.97782  0.62515  0.24639  1.0000
  C   C123      1.0  0.95021  0.61028  0.24418  1.0000
  H   H55       1.0  0.94088  0.60398  0.18367  1.0000
  C   C124      1.0  0.99159  0.63099  0.16678  1.0000
  O   O35       1.0  0.98758  0.64362  0.11036  1.0000
  O   O36       1.0  0.99899  0.61586  0.14222  1.0000
  C   C125      1.0  0.41841  0.34721  0.32360  1.0000
  C   C126      1.0  0.38977  0.37380  0.33118  1.0000
  C   C127      1.0  0.39514  0.36648  0.24633  1.0000
  C   C128      1.0  0.41000  0.35373  0.24407  1.0000
  H   H56       1.0  0.41624  0.35064  0.18351  1.0000
  C   C129      1.0  0.37988  0.39124  0.34295  1.0000
  C   C130      1.0  0.36035  0.42644  0.34833  1.0000
  C   C131      1.0  0.34768  0.40278  0.30040  1.0000
  N   N25       1.0  0.35794  0.38674  0.29829  1.0000
  H   H57       1.0  0.33159  0.39810  0.26244  1.0000
  C   C132      1.0  0.38923  0.37435  0.16672  1.0000
  O   O37       1.0  0.37657  0.35769  0.11046  1.0000
  O   O38       1.0  0.40435  0.39687  0.14195  1.0000
  H   H58       1.0  0.40336  0.40329  0.08936  1.0000
  C   C133      1.0  0.67310  0.08502  0.32369  1.0000
  C   C134      1.0  0.64657  0.02983  0.33122  1.0000
  C   C135      1.0  0.65394  0.04253  0.24637  1.0000
  C   C136      1.0  0.66667  0.07014  0.24409  1.0000
  H   H59       1.0  0.66978  0.07947  0.18355  1.0000
  C   C137      1.0  0.62914  0.00250  0.34294  1.0000
  C   C138      1.0  0.59393  0.94777  0.34819  1.0000
  C   C139      1.0  0.61762  0.95877  0.30038  1.0000
  N   N26       1.0  0.63365  0.98506  0.29832  1.0000
  H   H60       1.0  0.62232  0.94736  0.26246  1.0000
  C   C140      1.0  0.64611  0.02875  0.16674  1.0000
  O   O39       1.0  0.66280  0.03275  0.11061  1.0000
  O   O40       1.0  0.62361  0.02135  0.14182  1.0000
  H   H61       1.0  0.61721  0.01393  0.08922  1.0000
  C   C141      1.0  0.57834  0.68015  0.32135  1.0000
  N   N27       1.0  0.58046  0.70412  0.32041  1.0000
  C   C142      1.0  0.55884  0.70679  0.32180  1.0000
  N   N28       1.0  0.53526  0.68450  0.32485  1.0000
  C   C143      1.0  0.53222  0.66026  0.32622  1.0000
  N   N29       1.0  0.55429  0.65879  0.32490  1.0000
  C   C144      1.0  0.34022  0.91201  0.32153  1.0000
  N   N30       1.0  0.31625  0.89015  0.32050  1.0000
  C   C145      1.0  0.31358  0.86587  0.32181  1.0000
  N   N31       1.0  0.33587  0.86458  0.32482  1.0000
  C   C146      1.0  0.36011  0.88577  0.32624  1.0000
  N   N32       1.0  0.36158  0.90932  0.32500  1.0000
  C   C147      1.0  0.90957  0.58077  0.32161  1.0000
  N   N33       1.0  0.88771  0.58288  0.32053  1.0000
  C   C148      1.0  0.86343  0.56126  0.32182  1.0000
  N   N34       1.0  0.86215  0.53768  0.32484  1.0000
  C   C149      1.0  0.88334  0.53465  0.32627  1.0000
  N   N35       1.0  0.90689  0.55673  0.32506  1.0000
  C   C150      1.0  0.43957  0.34263  0.32136  1.0000
  N   N36       1.0  0.43746  0.31866  0.32036  1.0000
  C   C151      1.0  0.45908  0.31600  0.32170  1.0000
  N   N37       1.0  0.48266  0.33830  0.32475  1.0000
  C   C152      1.0  0.48570  0.36253  0.32615  1.0000
  N   N38       1.0  0.46362  0.36400  0.32488  1.0000
  C   C153      1.0  0.67769  0.11077  0.32143  1.0000
  N   N39       1.0  0.70166  0.13263  0.32044  1.0000
  C   C154      1.0  0.70433  0.15691  0.32181  1.0000
  N   N40       1.0  0.68204  0.15820  0.32487  1.0000
  C   C155      1.0  0.65780  0.13700  0.32627  1.0000
  N   N41       1.0  0.65633  0.11346  0.32498  1.0000
  C   C156      1.0  0.44333  0.10194  0.34351  1.0000
  N   N42       1.0  0.43880  0.12229  0.33433  1.0000
  C   C157      1.0  0.45889  0.14752  0.33396  1.0000
  N   N43       1.0  0.48370  0.15199  0.34095  1.0000
  C   C158      1.0  0.48891  0.13232  0.34898  1.0000
  N   N44       1.0  0.46848  0.10780  0.35070  1.0000
  C   C159      1.0  0.66513  0.57702  0.34347  1.0000
  N   N45       1.0  0.69000  0.58154  0.33426  1.0000
  C   C160      1.0  0.69514  0.56145  0.33380  1.0000
  N   N46       1.0  0.67479  0.53663  0.34080  1.0000
  C   C161      1.0  0.64991  0.53143  0.34888  1.0000
  N   N47       1.0  0.64583  0.55187  0.35063  1.0000
  C   C162      1.0  0.91839  0.35521  0.34337  1.0000
  N   N48       1.0  0.89804  0.33034  0.33420  1.0000
  C   C163      1.0  0.87281  0.32520  0.33374  1.0000
  N   N49       1.0  0.86834  0.34554  0.34074  1.0000
  C   C164      1.0  0.88801  0.37042  0.34880  1.0000
  N   N50       1.0  0.91254  0.37451  0.35057  1.0000
  C   C165      1.0  0.57458  0.92085  0.34329  1.0000
  N   N51       1.0  0.57912  0.90051  0.33416  1.0000
  C   C166      1.0  0.55904  0.87527  0.33373  1.0000
  N   N52       1.0  0.53422  0.87079  0.34075  1.0000
  C   C167      1.0  0.52900  0.89045  0.34878  1.0000
  N   N53       1.0  0.54942  0.91498  0.35049  1.0000
  C   C168      1.0  0.35279  0.44580  0.34352  1.0000
  N   N54       1.0  0.32792  0.44127  0.33434  1.0000
  C   C169      1.0  0.32277  0.46136  0.33399  1.0000
  N   N55       1.0  0.34311  0.48617  0.34097  1.0000
  C   C170      1.0  0.36799  0.49139  0.34899  1.0000
  N   N56       1.0  0.37209  0.47095  0.35070  1.0000
  C   C171      1.0  0.29113  0.47329  0.38837  1.0000
  N   N57       1.0  0.26778  0.47194  0.38156  1.0000
  C   C172      1.0  0.22631  0.48319  0.33487  1.0000
  C   C173      1.0  0.20262  0.48349  0.33355  1.0000
  H   H62       1.0  0.20338  0.50102  0.34109  1.0000
  H   H63       1.0  0.30430  0.48617  0.43329  1.0000
  C   C174      1.0  0.24941  0.50682  0.34214  1.0000
  O   O41       1.0  0.25328  0.51913  0.41174  1.0000
  O   O42       1.0  0.26032  0.52011  0.27518  1.0000
  H   H64       1.0  0.25809  0.51394  0.21974  1.0000
  C   C175      1.0  0.54717  0.83174  0.38844  1.0000
  N   N58       1.0  0.54850  0.80973  0.38166  1.0000
  C   C176      1.0  0.53721  0.75698  0.33514  1.0000
  C   C177      1.0  0.53691  0.73299  0.33383  1.0000
  H   H65       1.0  0.51938  0.71623  0.34152  1.0000
  H   H66       1.0  0.53432  0.83205  0.43344  1.0000
  C   C178      1.0  0.51359  0.75646  0.34260  1.0000
  O   O43       1.0  0.50133  0.74805  0.41229  1.0000
  O   O44       1.0  0.50025  0.75406  0.27574  1.0000
  H   H67       1.0  0.50638  0.75796  0.22025  1.0000
  N   N59       1.0  0.21066  0.75257  0.38147  1.0000
  C   C179      1.0  0.26339  0.79404  0.33489  1.0000
  C   C180      1.0  0.28738  0.81773  0.33359  1.0000
  H   H68       1.0  0.30415  0.81696  0.34117  1.0000
  C   C181      1.0  0.26392  0.77093  0.34216  1.0000
  O   O45       1.0  0.27234  0.76706  0.41179  1.0000
  O   O46       1.0  0.26631  0.76003  0.27521  1.0000
  H   H69       1.0  0.26239  0.76227  0.21976  1.0000
  C   C182      1.0  0.72677  0.54951  0.38826  1.0000
  N   N60       1.0  0.75012  0.55085  0.38148  1.0000
  C   C183      1.0  0.79160  0.53960  0.33487  1.0000
  C   C184      1.0  0.81529  0.53931  0.33358  1.0000
  H   H70       1.0  0.81453  0.52177  0.34113  1.0000
  H   H71       1.0  0.71359  0.53662  0.43315  1.0000
  C   C185      1.0  0.76850  0.51597  0.34213  1.0000
  O   O47       1.0  0.76462  0.50367  0.41174  1.0000
  O   O48       1.0  0.75760  0.50268  0.27517  1.0000
  H   H72       1.0  0.75984  0.50884  0.21972  1.0000
  C   C186      1.0  0.47081  0.19109  0.38835  1.0000
  N   N61       1.0  0.46947  0.21309  0.38153  1.0000
  C   C187      1.0  0.48073  0.26582  0.33485  1.0000
  C   C188      1.0  0.48103  0.28981  0.33353  1.0000
  H   H73       1.0  0.49856  0.30658  0.34107  1.0000
  H   H74       1.0  0.48369  0.19080  0.43328  1.0000
  C   C189      1.0  0.50436  0.26635  0.34212  1.0000
  O   O49       1.0  0.51666  0.27479  0.41172  1.0000
  O   O50       1.0  0.51765  0.26872  0.27516  1.0000
  H   H75       1.0  0.51148  0.26480  0.21972  1.0000
  C   C190      1.0  0.82926  0.29356  0.38831  1.0000
  N   N62       1.0  0.80725  0.27021  0.38154  1.0000
  C   C191      1.0  0.75451  0.22874  0.33501  1.0000
  C   C192      1.0  0.73052  0.20505  0.33372  1.0000
  H   H76       1.0  0.71376  0.20581  0.34135  1.0000
  H   H77       1.0  0.82956  0.30673  0.43325  1.0000
  C   C193      1.0  0.75399  0.25184  0.34238  1.0000
  O   O51       1.0  0.74557  0.25570  0.41205  1.0000
  O   O52       1.0  0.75158  0.26275  0.27548  1.0000
  H   H78       1.0  0.75550  0.26052  0.22001  1.0000
  C   C194      1.0  0.38953  0.51685  0.35712  1.0000
  C   C195      1.0  0.43504  0.56649  0.36041  1.0000
  C   C196      1.0  0.43313  0.54660  0.41881  1.0000
  C   C197      1.0  0.41033  0.52190  0.41532  1.0000
  H   H79       1.0  0.40871  0.50734  0.45667  1.0000
  C   C198      1.0  0.45810  0.59120  0.35042  1.0000
  C   C199      1.0  0.50722  0.63741  0.33191  1.0000
  C   C200      1.0  0.50470  0.61256  0.34081  1.0000
  N   N63       1.0  0.48097  0.59117  0.34950  1.0000
  H   H80       1.0  0.52055  0.61010  0.34225  1.0000
  C   C201      1.0  0.45211  0.55100  0.48167  1.0000
  O   O53       1.0  0.46052  0.53591  0.48633  1.0000
  O   O54       1.0  0.45394  0.56460  0.54714  1.0000
  H   H81       1.0  0.46437  0.56735  0.59345  1.0000
  C   C202      1.0  0.50354  0.88651  0.35692  1.0000
  C   C203      1.0  0.45389  0.88238  0.36026  1.0000
  C   C204      1.0  0.47378  0.90035  0.41866  1.0000
  C   C205      1.0  0.49849  0.90226  0.41515  1.0000
  H   H82       1.0  0.51304  0.91520  0.45651  1.0000
  C   C206      1.0  0.42918  0.88072  0.35029  1.0000
  C   C207      1.0  0.38296  0.88362  0.33187  1.0000
  C   C208      1.0  0.40781  0.90596  0.34076  1.0000
  N   N64       1.0  0.42921  0.90363  0.34942  1.0000
  H   H83       1.0  0.41027  0.92427  0.34223  1.0000
  C   C209      1.0  0.46938  0.91493  0.48156  1.0000
  O   O55       1.0  0.48447  0.93843  0.48623  1.0000
  O   O56       1.0  0.45579  0.90316  0.54702  1.0000
  H   H84       1.0  0.45303  0.91083  0.59335  1.0000
  C   C210      1.0  0.88409  0.39196  0.35693  1.0000
  C   C211      1.0  0.87996  0.43747  0.36028  1.0000
  C   C212      1.0  0.89794  0.43555  0.41866  1.0000
  C   C213      1.0  0.89984  0.41275  0.41515  1.0000
  H   H85       1.0  0.91278  0.41114  0.45651  1.0000
  C   C214      1.0  0.87830  0.46053  0.35031  1.0000
  C   C215      1.0  0.88120  0.50964  0.33191  1.0000
  C   C216      1.0  0.90354  0.50714  0.34080  1.0000
  N   N65       1.0  0.90121  0.48340  0.34944  1.0000
  H   H86       1.0  0.92185  0.52299  0.34226  1.0000
  C   C217      1.0  0.91252  0.45453  0.48154  1.0000
  O   O57       1.0  0.93602  0.46294  0.48620  1.0000
  O   O58       1.0  0.90075  0.45635  0.54702  1.0000
  H   H87       1.0  0.90842  0.46678  0.59335  1.0000
  C   C218      1.0  0.62837  0.50597  0.35696  1.0000
  C   C219      1.0  0.58286  0.45632  0.36030  1.0000
  C   C220      1.0  0.58477  0.47622  0.41864  1.0000
  C   C221      1.0  0.60757  0.50092  0.41514  1.0000
  H   H88       1.0  0.60918  0.51548  0.45647  1.0000
  C   C222      1.0  0.55981  0.43161  0.35032  1.0000
  C   C223      1.0  0.51070  0.38538  0.33185  1.0000
  C   C224      1.0  0.51320  0.41023  0.34071  1.0000
  N   N66       1.0  0.53693  0.43164  0.34939  1.0000
  H   H89       1.0  0.49735  0.41269  0.34213  1.0000
  C   C225      1.0  0.56578  0.47183  0.48148  1.0000
  O   O59       1.0  0.55736  0.48691  0.48608  1.0000
  O   O60       1.0  0.56395  0.45824  0.54699  1.0000
  H   H90       1.0  0.55352  0.45549  0.59329  1.0000
  C   C226      1.0  0.51437  0.13625  0.35712  1.0000
  C   C227      1.0  0.56402  0.14039  0.36043  1.0000
  C   C228      1.0  0.54412  0.12241  0.41882  1.0000
  C   C229      1.0  0.51942  0.12051  0.41532  1.0000
  H   H91       1.0  0.50487  0.10756  0.45667  1.0000
  C   C230      1.0  0.58873  0.14205  0.35045  1.0000
  C   C231      1.0  0.63495  0.13915  0.33197  1.0000
  C   C232      1.0  0.61010  0.11681  0.34088  1.0000
  N   N67       1.0  0.58870  0.11914  0.34955  1.0000
  H   H92       1.0  0.60764  0.09850  0.34232  1.0000
  C   C233      1.0  0.54853  0.10783  0.48170  1.0000
  O   O61       1.0  0.53344  0.08433  0.48636  1.0000
  O   O62       1.0  0.56212  0.11960  0.54716  1.0000
  H   H93       1.0  0.56488  0.11192  0.59348  1.0000
  C   C234      1.0  0.99006  0.39535  0.39557  1.0000
  C   C235      1.0  0.96288  0.38537  0.39673  1.0000
  H   H94       1.0  0.95581  0.39526  0.43256  1.0000
  O   O63       1.0  0.00354  0.42032  0.51889  1.0000
  C   C236      1.0  0.60645  0.66891  0.40568  1.0000
  N   N68       1.0  0.61972  0.65581  0.40592  1.0000
  C   C237      1.0  0.62499  0.60856  0.39553  1.0000
  C   C238      1.0  0.63496  0.59135  0.39669  1.0000
  H   H95       1.0  0.62505  0.57439  0.43246  1.0000
  H   H96       1.0  0.59941  0.67138  0.46528  1.0000
  C   C239      1.0  0.60133  0.60094  0.43787  1.0000
  O   O64       1.0  0.59998  0.59705  0.51876  1.0000
  O   O65       1.0  0.58050  0.58855  0.39715  1.0000
  H   H97       1.0  0.57883  0.58826  0.33800  1.0000
  C   C240      1.0  0.35144  0.95139  0.40580  1.0000
  N   N69       1.0  0.36453  0.97775  0.40600  1.0000
  C   C241      1.0  0.41181  0.03026  0.39554  1.0000
  C   C242      1.0  0.42901  0.05744  0.39669  1.0000
  H   H98       1.0  0.44597  0.06450  0.43247  1.0000
  H   H99       1.0  0.34895  0.94188  0.46543  1.0000
  C   C243      1.0  0.41943  0.01423  0.43789  1.0000
  O   O66       1.0  0.42333  0.01677  0.51878  1.0000
  O   O67       1.0  0.43180  0.00577  0.39716  1.0000
  H   H100      1.0  0.43209  0.00439  0.33801  1.0000
  C   C244      1.0  0.94895  0.60895  0.40583  1.0000
  N   N70       1.0  0.97532  0.62222  0.40602  1.0000
  H   H101      1.0  0.93945  0.60195  0.46547  1.0000
  O   O68       1.0  0.00334  0.58297  0.39744  1.0000
  H   H102      1.0  0.00195  0.58128  0.33830  1.0000
  C   C245      1.0  0.41148  0.35392  0.40564  1.0000
  N   N71       1.0  0.39822  0.36703  0.40590  1.0000
  C   C246      1.0  0.39296  0.41428  0.39545  1.0000
  C   C247      1.0  0.38298  0.43148  0.39663  1.0000
  H   H103      1.0  0.39290  0.44846  0.43237  1.0000
  H   H104      1.0  0.41852  0.35146  0.46524  1.0000
  C   C248      1.0  0.41663  0.42191  0.43774  1.0000
  O   O69       1.0  0.41799  0.42581  0.51862  1.0000
  O   O70       1.0  0.43745  0.43428  0.39695  1.0000
  H   H105      1.0  0.43910  0.43457  0.33781  1.0000
  C   C249      1.0  0.66641  0.07141  0.40577  1.0000
  N   N72       1.0  0.65331  0.04504  0.40597  1.0000
  C   C250      1.0  0.60607  0.99252  0.39532  1.0000
  C   C251      1.0  0.58887  0.96535  0.39644  1.0000
  H   H106      1.0  0.57189  0.95829  0.43210  1.0000
  H   H107      1.0  0.66884  0.08091  0.46536  1.0000
  C   C252      1.0  0.59843  0.00856  0.43755  1.0000
  O   O71       1.0  0.59449  0.00601  0.51841  1.0000
  O   O72       1.0  0.58606  0.01701  0.39669  1.0000
  H   H108      1.0  0.58580  0.01838  0.33754  1.0000
