data_image0
_chemical_formula_structural       C2HC4H3C2HC5H3C2NC3NHCH3C2NC2NCH3C2HC5H3C2NC3NHCH3C4H2C3H2C3HC6H2C6H3CHC6H3CHC2NC3NHCH3C2HC5H3C2HC3H2CHC2NC3NHCH3C2HC5H3C2NHC3HC5H3C2NC3NHCH3CHC2HC5H3C2HC5H3C2HC5H3C2HC5H3C2HC5H3C2NC3NHCH3C2NC3NHCH3C2NC3NHCH3C2NC3NHCH3C2NC3NHCH3C2HC5H3C2HC5H3C2HC5H3C2HCHC2HC5H3C2HC5H3C3HC3H2C6H4C6H3C5H2C6H3C6H3C6H3C6H3C6H3C6H3C6H3C6H3CNC3NHCH2C2NC3NHCH3C2HC5H3C2HC2NC3NHCH3C2NC3NHCH3C2NC3NHCH3CNC3NHCH2C2NC3NHCH3C2HC5H3C2HC5H3C2HC5H3C2HC5H3C2HC5H3C2NC3NHCH3C2NC3NHCH3C2NC3NHCH3C2NC2H3C2NC3NHCH3C2NC3NHCH3
_chemical_formula_sum              "C408 H240 N48"
_cell_length_a       62.7484
_cell_length_b       62.7484
_cell_length_c       14.892
_cell_angle_alpha    90
_cell_angle_beta     90
_cell_angle_gamma    120

_space_group_name_H-M_alt    "P 1"
_space_group_IT_number       1

loop_
  _space_group_symop_operation_xyz
  'x, y, z'

loop_
  _atom_site_type_symbol
  _atom_site_label
  _atom_site_symmetry_multiplicity
  _atom_site_fract_x
  _atom_site_fract_y
  _atom_site_fract_z
  _atom_site_occupancy
  C   C1        1.0  0.00555  0.12885  0.25884  1.0000
  C   C2        1.0  0.00558  0.15144  0.26124  1.0000
  H   H1        1.0  0.00566  0.15982  0.20206  1.0000
  C   C3        1.0  0.00553  0.06079  0.25840  1.0000
  C   C4        1.0  0.00553  0.08340  0.25747  1.0000
  C   C5        1.0  0.00563  0.09510  0.17632  1.0000
  C   C6        1.0  0.00564  0.11753  0.17699  1.0000
  H   H2        1.0  0.00570  0.08736  0.11590  1.0000
  H   H3        1.0  0.00573  0.12555  0.11704  1.0000
  H   H4        1.0  0.00561  0.05263  0.19893  1.0000
  C   C7        1.0  0.13056  0.00352  0.25885  1.0000
  C   C8        1.0  0.15313  0.00350  0.26125  1.0000
  H   H5        1.0  0.16142  0.00341  0.20207  1.0000
  C   C9        1.0  0.05105  0.00363  0.34007  1.0000
  C   C10       1.0  0.06252  0.00354  0.25841  1.0000
  C   C11       1.0  0.08513  0.00354  0.25748  1.0000
  C   C12       1.0  0.09673  0.00344  0.17633  1.0000
  C   C13       1.0  0.11915  0.00343  0.17700  1.0000
  H   H6        1.0  0.08892  0.00337  0.11591  1.0000
  H   H7        1.0  0.12709  0.00335  0.11705  1.0000
  H   H8        1.0  0.05428  0.00346  0.19894  1.0000
  C   C14       1.0  0.05023  0.25424  0.33852  1.0000
  C   C15       1.0  0.06071  0.26770  0.25809  1.0000
  N   N1        1.0  0.07924  0.29154  0.26376  1.0000
  C   C16       1.0  0.08875  0.30394  0.34181  1.0000
  C   C17       1.0  0.10748  0.32903  0.34231  1.0000
  C   C18       1.0  0.13462  0.36585  0.26158  1.0000
  N   N2        1.0  0.11695  0.34170  0.26455  1.0000
  H   H9        1.0  0.14065  0.37410  0.20041  1.0000
  C   C19       1.0  0.05256  0.25806  0.16614  1.0000
  H   H10       1.0  0.03800  0.23883  0.16525  1.0000
  H   H11       1.0  0.06813  0.25957  0.12814  1.0000
  H   H12       1.0  0.04573  0.26893  0.13248  1.0000
  C   C20       1.0  0.21127  0.95883  0.33858  1.0000
  C   C21       1.0  0.21421  0.94834  0.25813  1.0000
  N   N3        1.0  0.21953  0.92981  0.26380  1.0000
  C   C22       1.0  0.22243  0.92031  0.34185  1.0000
  C   C23       1.0  0.22879  0.90158  0.34234  1.0000
  N   N4        1.0  0.23200  0.89212  0.26457  1.0000
  C   C24       1.0  0.21274  0.95650  0.16618  1.0000
  H   H13       1.0  0.20808  0.97106  0.16529  1.0000
  H   H14       1.0  0.19868  0.94093  0.12817  1.0000
  H   H15       1.0  0.23043  0.96331  0.13253  1.0000
  C   C25       1.0  0.20171  0.73962  0.25631  1.0000
  C   C26       1.0  0.21601  0.76555  0.25921  1.0000
  H   H16       1.0  0.22181  0.77524  0.20029  1.0000
  C   C27       1.0  0.15301  0.64862  0.33924  1.0000
  C   C28       1.0  0.15975  0.66147  0.25684  1.0000
  C   C29       1.0  0.17375  0.68746  0.25520  1.0000
  C   C30       1.0  0.18077  0.70074  0.17377  1.0000
  C   C31       1.0  0.19468  0.72660  0.17432  1.0000
  H   H17       1.0  0.17590  0.69172  0.11347  1.0000
  H   H18       1.0  0.19966  0.73581  0.11440  1.0000
  H   H19       1.0  0.15421  0.65185  0.19775  1.0000
  C   C32       1.0  0.16466  0.46604  0.33810  1.0000
  C   C33       1.0  0.16276  0.47727  0.25792  1.0000
  N   N5        1.0  0.15829  0.49632  0.26439  1.0000
  C   C34       1.0  0.15554  0.50569  0.34295  1.0000
  C   C35       1.0  0.15105  0.52564  0.34398  1.0000
  C   C36       1.0  0.14411  0.55461  0.26346  1.0000
  N   N6        1.0  0.14898  0.53584  0.26622  1.0000
  H   H20       1.0  0.14200  0.56075  0.20235  1.0000
  C   C37       1.0  0.16558  0.47016  0.16575  1.0000
  H   H21       1.0  0.16884  0.45465  0.16433  1.0000
  H   H22       1.0  0.18106  0.48576  0.13282  1.0000
  H   H23       1.0  0.14888  0.46505  0.12737  1.0000
  C   C38       1.0  0.07009  0.57659  0.33872  1.0000
  C   C39       1.0  0.05731  0.56998  0.25621  1.0000
  C   C40       1.0  0.03134  0.55754  0.25457  1.0000
  C   C41       1.0  0.01801  0.55034  0.17325  1.0000
  H   H24       1.0  0.02700  0.55426  0.11292  1.0000
  H   H25       1.0  0.06695  0.57383  0.19722  1.0000
  C   C42       1.0  0.02785  0.02604  0.34116  1.0000
  C   C43       1.0  0.02822  0.00363  0.34127  1.0000
  C   C44       1.0  0.00545  0.98121  0.34116  1.0000
  H   H26       1.0  0.00545  0.96489  0.34071  1.0000
  H   H27       1.0  0.04418  0.04237  0.34071  1.0000
  C   C45       1.0  0.02809  0.23100  0.33947  1.0000
  C   C46       1.0  0.00545  0.18555  0.34202  1.0000
  C   C47       1.0  0.02790  0.20833  0.34057  1.0000
  H   H28       1.0  0.04428  0.20844  0.34039  1.0000
  C   C48       1.0  0.21016  0.98097  0.33949  1.0000
  C   C49       1.0  0.23250  0.00362  0.34014  1.0000
  C   C50       1.0  0.23281  0.02627  0.34171  1.0000
  C   C51       1.0  0.21013  0.02607  0.34244  1.0000
  C   C52       1.0  0.18736  0.00361  0.34202  1.0000
  C   C53       1.0  0.18769  0.98116  0.34061  1.0000
  H   H29       1.0  0.21024  0.04243  0.34371  1.0000
  H   H30       1.0  0.17142  0.96479  0.34047  1.0000
  C   C54       1.0  0.17189  0.44795  0.33863  1.0000
  C   C55       1.0  0.19719  0.45555  0.33954  1.0000
  C   C56       1.0  0.20517  0.43814  0.34092  1.0000
  C   C57       1.0  0.18747  0.41276  0.34100  1.0000
  C   C58       1.0  0.16200  0.40476  0.34016  1.0000
  C   C59       1.0  0.15440  0.42254  0.33931  1.0000
  H   H31       1.0  0.19318  0.40006  0.34215  1.0000
  H   H32       1.0  0.13601  0.41697  0.33909  1.0000
  H   H33       1.0  0.20994  0.47398  0.33946  1.0000
  C   C60       1.0  0.23255  0.82160  0.34100  1.0000
  H   H34       1.0  0.21414  0.81589  0.34212  1.0000
  C   C61       1.0  0.09586  0.58691  0.34088  1.0000
  C   C62       1.0  0.10593  0.57124  0.34175  1.0000
  C   C63       1.0  0.13166  0.58101  0.34223  1.0000
  C   C64       1.0  0.14740  0.60682  0.34196  1.0000
  C   C65       1.0  0.13752  0.62275  0.34116  1.0000
  C   C66       1.0  0.11171  0.61263  0.34041  1.0000
  H   H35       1.0  0.16609  0.61402  0.34224  1.0000
  H   H36       1.0  0.10441  0.62404  0.33914  1.0000
  H   H37       1.0  0.09441  0.55253  0.34184  1.0000
  C   C67       1.0  0.00546  0.16272  0.34346  1.0000
  H   H38       1.0  0.02148  0.16207  0.55203  1.0000
  C   C68       1.0  0.16452  0.00361  0.34347  1.0000
  C   C69       1.0  0.15234  0.00374  0.42397  1.0000
  N   N7        1.0  0.13061  0.00374  0.41872  1.0000
  C   C70       1.0  0.11912  0.00363  0.34106  1.0000
  C   C71       1.0  0.09644  0.00364  0.34051  1.0000
  C   C72       1.0  0.06314  0.00374  0.42029  1.0000
  N   N8        1.0  0.08485  0.00373  0.41781  1.0000
  H   H39       1.0  0.05575  0.00381  0.48137  1.0000
  C   C73       1.0  0.16147  0.00385  0.51576  1.0000
  H   H40       1.0  0.17883  0.00382  0.51634  1.0000
  H   H41       1.0  0.14786  0.98759  0.55204  1.0000
  H   H42       1.0  0.16423  0.02024  0.55142  1.0000
  C   C74       1.0  0.07888  0.29133  0.42398  1.0000
  C   C75       1.0  0.05965  0.26655  0.42113  1.0000
  H   H43       1.0  0.05181  0.25761  0.48006  1.0000
  C   C76       1.0  0.14420  0.37930  0.34181  1.0000
  C   C77       1.0  0.13482  0.36680  0.42395  1.0000
  C   C78       1.0  0.11644  0.34163  0.42530  1.0000
  C   C79       1.0  0.10660  0.32889  0.50660  1.0000
  C   C80       1.0  0.08800  0.30399  0.50594  1.0000
  H   H44       1.0  0.11274  0.33767  0.56694  1.0000
  H   H45       1.0  0.08101  0.29526  0.56582  1.0000
  H   H46       1.0  0.14128  0.37618  0.48316  1.0000
  C   C81       1.0  0.21968  0.93017  0.42403  1.0000
  C   C82       1.0  0.21414  0.94941  0.42120  1.0000
  H   H47       1.0  0.21305  0.95725  0.48012  1.0000
  C   C83       1.0  0.23244  0.89262  0.42532  1.0000
  C   C84       1.0  0.22953  0.90246  0.50663  1.0000
  C   C85       1.0  0.22323  0.92105  0.50598  1.0000
  H   H48       1.0  0.23218  0.89632  0.56696  1.0000
  H   H49       1.0  0.22149  0.92804  0.56587  1.0000
  C   C86       1.0  0.23081  0.44670  0.34203  1.0000
  H   H50       1.0  0.21452  0.44005  0.51541  1.0000
  C   C87       1.0  0.22314  0.77826  0.34200  1.0000
  C   C88       1.0  0.21562  0.76422  0.42256  1.0000
  N   N9        1.0  0.20186  0.73927  0.41677  1.0000
  C   C89       1.0  0.19465  0.72642  0.33856  1.0000
  C   C90       1.0  0.18076  0.70041  0.33815  1.0000
  C   C91       1.0  0.16048  0.66244  0.41943  1.0000
  N   N10       1.0  0.17386  0.68738  0.41618  1.0000
  H   H51       1.0  0.15568  0.65396  0.48068  1.0000
  C   C92       1.0  0.22200  0.77451  0.51449  1.0000
  H   H52       1.0  0.23278  0.79455  0.51540  1.0000
  H   H53       1.0  0.23264  0.76741  0.54807  1.0000
  H   H54       1.0  0.20515  0.76889  0.55258  1.0000
  C   C93       1.0  0.15727  0.49507  0.42485  1.0000
  C   C94       1.0  0.16192  0.47528  0.42126  1.0000
  H   H55       1.0  0.16375  0.46779  0.47993  1.0000
  C   C95       1.0  0.14084  0.56451  0.34391  1.0000
  C   C96       1.0  0.14282  0.55439  0.42605  1.0000
  C   C97       1.0  0.14808  0.53496  0.42720  1.0000
  C   C98       1.0  0.14984  0.52431  0.50831  1.0000
  C   C99       1.0  0.15449  0.50459  0.50715  1.0000
  H   H56       1.0  0.14768  0.53075  0.56877  1.0000
  H   H57       1.0  0.15567  0.49715  0.56681  1.0000
  H   H58       1.0  0.13971  0.56073  0.48521  1.0000
  C   C100      1.0  0.01846  0.55175  0.33762  1.0000
  C   C101      1.0  0.05635  0.57045  0.41900  1.0000
  N   N11       1.0  0.03142  0.55840  0.41573  1.0000
  H   H59       1.0  0.06485  0.57443  0.48025  1.0000
  C   C102      1.0  0.00543  0.04922  0.34006  1.0000
  C   C103      1.0  0.88020  0.87851  0.25884  1.0000
  C   C104      1.0  0.85761  0.85594  0.26123  1.0000
  H   H60       1.0  0.84924  0.84765  0.20205  1.0000
  C   C105      1.0  0.95985  0.95802  0.34006  1.0000
  C   C106      1.0  0.94827  0.94655  0.25840  1.0000
  C   C107      1.0  0.92566  0.92394  0.25747  1.0000
  C   C108      1.0  0.91396  0.91234  0.17632  1.0000
  C   C109      1.0  0.89153  0.88992  0.17698  1.0000
  H   H61       1.0  0.92170  0.92015  0.11590  1.0000
  H   H62       1.0  0.88351  0.88199  0.11704  1.0000
  H   H63       1.0  0.95644  0.95479  0.19893  1.0000
  C   C110      1.0  0.75481  0.79777  0.33855  1.0000
  C   C111      1.0  0.74138  0.79483  0.25810  1.0000
  N   N12       1.0  0.71753  0.78951  0.26378  1.0000
  C   C112      1.0  0.70513  0.78661  0.34182  1.0000
  C   C113      1.0  0.68004  0.78026  0.34231  1.0000
  C   C114      1.0  0.64321  0.77056  0.26157  1.0000
  N   N13       1.0  0.66737  0.77705  0.26455  1.0000
  H   H64       1.0  0.63497  0.76835  0.20040  1.0000
  C   C115      1.0  0.75100  0.79630  0.16616  1.0000
  H   H65       1.0  0.77023  0.80096  0.16526  1.0000
  H   H66       1.0  0.74951  0.81037  0.12816  1.0000
  H   H67       1.0  0.74013  0.77861  0.13249  1.0000
  C   C116      1.0  0.23848  0.87445  0.26160  1.0000
  H   H68       1.0  0.24070  0.86842  0.20042  1.0000
  C   C117      1.0  0.29313  0.07706  0.25713  1.0000
  C   C118      1.0  0.26836  0.05780  0.25995  1.0000
  H   H69       1.0  0.25946  0.04989  0.20104  1.0000
  C   C119      1.0  0.38105  0.14249  0.33933  1.0000
  C   C120      1.0  0.36857  0.13306  0.25719  1.0000
  C   C121      1.0  0.34341  0.11466  0.25584  1.0000
  C   C122      1.0  0.33069  0.10476  0.17453  1.0000
  C   C123      1.0  0.30581  0.08614  0.17518  1.0000
  H   H70       1.0  0.33950  0.11087  0.11421  1.0000
  H   H71       1.0  0.29711  0.07910  0.11530  1.0000
  H   H72       1.0  0.37797  0.13948  0.19799  1.0000
  C   C124      1.0  0.79118  0.71594  0.25720  1.0000
  C   C125      1.0  0.79669  0.74071  0.26005  1.0000
  H   H73       1.0  0.79770  0.74961  0.20114  1.0000
  C   C126      1.0  0.76868  0.62801  0.33934  1.0000
  C   C127      1.0  0.77172  0.64049  0.25721  1.0000
  C   C128      1.0  0.77848  0.66565  0.25587  1.0000
  C   C129      1.0  0.78129  0.67837  0.17458  1.0000
  C   C130      1.0  0.78756  0.70325  0.17524  1.0000
  H   H74       1.0  0.77859  0.66957  0.11425  1.0000
  H   H75       1.0  0.78923  0.71196  0.11537  1.0000
  H   H76       1.0  0.76874  0.63109  0.19800  1.0000
  C   C131      1.0  0.93203  0.21791  0.25721  1.0000
  C   C132      1.0  0.95130  0.21241  0.26005  1.0000
  H   H77       1.0  0.95918  0.21138  0.20114  1.0000
  C   C133      1.0  0.86658  0.24038  0.33934  1.0000
  C   C134      1.0  0.87603  0.23735  0.25721  1.0000
  C   C135      1.0  0.89443  0.23059  0.25587  1.0000
  C   C136      1.0  0.90433  0.22777  0.17458  1.0000
  C   C137      1.0  0.92296  0.22151  0.17524  1.0000
  H   H78       1.0  0.89824  0.23048  0.11425  1.0000
  H   H79       1.0  0.93001  0.21986  0.11537  1.0000
  H   H80       1.0  0.86961  0.24032  0.19800  1.0000
  C   C138      1.0  0.26944  0.46390  0.25633  1.0000
  C   C139      1.0  0.24352  0.45229  0.25922  1.0000
  H   H81       1.0  0.23382  0.44839  0.20030  1.0000
  C   C140      1.0  0.36045  0.50621  0.33925  1.0000
  C   C141      1.0  0.34759  0.50009  0.25686  1.0000
  C   C142      1.0  0.32161  0.48811  0.25522  1.0000
  C   C143      1.0  0.30832  0.48184  0.17378  1.0000
  C   C144      1.0  0.28247  0.46990  0.17433  1.0000
  H   H82       1.0  0.31735  0.48600  0.11348  1.0000
  H   H83       1.0  0.27325  0.46568  0.11442  1.0000
  H   H84       1.0  0.35721  0.50418  0.19776  1.0000
  C   C145      1.0  0.54517  0.80736  0.25634  1.0000
  C   C146      1.0  0.55680  0.79306  0.25924  1.0000
  H   H85       1.0  0.56069  0.78726  0.20032  1.0000
  C   C147      1.0  0.50287  0.85606  0.33924  1.0000
  C   C148      1.0  0.50898  0.84932  0.25684  1.0000
  C   C149      1.0  0.52096  0.83532  0.25521  1.0000
  C   C150      1.0  0.52723  0.82830  0.17378  1.0000
  C   C151      1.0  0.53917  0.81438  0.17434  1.0000
  H   H86       1.0  0.52307  0.83316  0.11348  1.0000
  H   H87       1.0  0.54340  0.80940  0.11442  1.0000
  H   H88       1.0  0.50489  0.85486  0.19776  1.0000
  C   C152      1.0  0.44845  0.22912  0.33932  1.0000
  C   C153      1.0  0.45503  0.24322  0.25893  1.0000
  N   N14       1.0  0.46623  0.26817  0.26498  1.0000
  C   C154      1.0  0.47181  0.28095  0.34333  1.0000
  C   C155      1.0  0.48395  0.30696  0.34403  1.0000
  C   C156      1.0  0.50176  0.34502  0.26324  1.0000
  N   N15       1.0  0.49016  0.32007  0.26618  1.0000
  H   H89       1.0  0.50553  0.35356  0.20211  1.0000
  C   C157      1.0  0.45121  0.23300  0.16689  1.0000
  H   H90       1.0  0.44194  0.21296  0.16579  1.0000
  H   H91       1.0  0.46898  0.24012  0.13352  1.0000
  H   H92       1.0  0.44002  0.23866  0.12873  1.0000
  C   C158      1.0  0.78791  0.56061  0.33934  1.0000
  C   C159      1.0  0.79544  0.55405  0.25893  1.0000
  N   N16       1.0  0.80920  0.54285  0.26498  1.0000
  C   C160      1.0  0.81640  0.53727  0.34333  1.0000
  C   C161      1.0  0.83028  0.52513  0.34402  1.0000
  C   C162      1.0  0.85051  0.50731  0.26322  1.0000
  N   N17       1.0  0.83716  0.51892  0.26616  1.0000
  H   H93       1.0  0.85529  0.50355  0.20208  1.0000
  C   C163      1.0  0.78905  0.55787  0.16690  1.0000
  H   H94       1.0  0.77828  0.56714  0.16580  1.0000
  H   H95       1.0  0.77841  0.54011  0.13351  1.0000
  H   H96       1.0  0.80590  0.56907  0.12876  1.0000
  C   C164      1.0  0.77995  0.22115  0.33931  1.0000
  C   C165      1.0  0.76586  0.21362  0.25890  1.0000
  N   N18       1.0  0.74091  0.19986  0.26496  1.0000
  C   C166      1.0  0.72813  0.19266  0.34331  1.0000
  C   C167      1.0  0.70211  0.17879  0.34401  1.0000
  C   C168      1.0  0.66405  0.15857  0.26322  1.0000
  N   N19       1.0  0.68901  0.17190  0.26616  1.0000
  H   H97       1.0  0.65551  0.15378  0.20208  1.0000
  C   C169      1.0  0.77607  0.22001  0.16686  1.0000
  H   H98       1.0  0.79611  0.23079  0.16577  1.0000
  H   H99       1.0  0.76895  0.23065  0.13348  1.0000
  H   H100      1.0  0.77042  0.20317  0.12872  1.0000
  C   C170      1.0  0.54301  0.70044  0.33811  1.0000
  C   C171      1.0  0.53179  0.68731  0.25792  1.0000
  N   N20       1.0  0.51275  0.66379  0.26439  1.0000
  C   C172      1.0  0.50338  0.65167  0.34295  1.0000
  C   C173      1.0  0.48343  0.62723  0.34398  1.0000
  C   C174      1.0  0.45446  0.59132  0.26344  1.0000
  N   N21       1.0  0.47323  0.61496  0.26621  1.0000
  H   H101      1.0  0.44832  0.58306  0.20234  1.0000
  C   C175      1.0  0.53891  0.69723  0.16575  1.0000
  H   H102      1.0  0.55441  0.71600  0.16434  1.0000
  H   H103      1.0  0.52331  0.69710  0.13279  1.0000
  H   H104      1.0  0.54403  0.68565  0.12741  1.0000
  C   C176      1.0  0.30863  0.84439  0.33812  1.0000
  C   C177      1.0  0.32176  0.84630  0.25794  1.0000
  N   N22       1.0  0.34528  0.85078  0.26440  1.0000
  C   C178      1.0  0.35740  0.85353  0.34296  1.0000
  C   C179      1.0  0.38183  0.85801  0.34398  1.0000
  C   C180      1.0  0.41775  0.86496  0.26344  1.0000
  N   N23       1.0  0.39411  0.86009  0.26622  1.0000
  H   H105      1.0  0.42601  0.86707  0.20234  1.0000
  C   C181      1.0  0.31184  0.84350  0.16577  1.0000
  H   H106      1.0  0.29307  0.84023  0.16435  1.0000
  H   H107      1.0  0.31196  0.82803  0.13281  1.0000
  H   H108      1.0  0.32342  0.86020  0.12741  1.0000
  C   C182      1.0  0.49688  0.15559  0.25667  1.0000
  C   C183      1.0  0.47709  0.16023  0.26000  1.0000
  H   H109      1.0  0.46963  0.16205  0.20124  1.0000
  C   C184      1.0  0.56631  0.13922  0.33868  1.0000
  C   C185      1.0  0.55624  0.14118  0.25639  1.0000
  C   C186      1.0  0.53680  0.14642  0.25490  1.0000
  C   C187      1.0  0.52619  0.14817  0.17364  1.0000
  C   C188      1.0  0.50646  0.15280  0.17451  1.0000
  H   H110      1.0  0.53267  0.14601  0.11328  1.0000
  H   H111      1.0  0.49906  0.15398  0.11475  1.0000
  H   H112      1.0  0.56260  0.13804  0.19736  1.0000
  C   C189      1.0  0.66595  0.51218  0.25663  1.0000
  C   C190      1.0  0.69040  0.53198  0.25996  1.0000
  H   H113      1.0  0.69967  0.53944  0.20121  1.0000
  C   C191      1.0  0.58016  0.44276  0.33863  1.0000
  C   C192      1.0  0.59220  0.45282  0.25633  1.0000
  C   C193      1.0  0.61688  0.47226  0.25485  1.0000
  C   C194      1.0  0.62923  0.48288  0.17359  1.0000
  C   C195      1.0  0.65360  0.50261  0.17446  1.0000
  H   H114      1.0  0.62059  0.47639  0.11323  1.0000
  H   H115      1.0  0.66217  0.51001  0.11471  1.0000
  H   H116      1.0  0.58269  0.44647  0.19731  1.0000
  C   C196      1.0  0.85349  0.34312  0.25666  1.0000
  C   C197      1.0  0.84884  0.31867  0.25998  1.0000
  H   H117      1.0  0.84702  0.30940  0.20122  1.0000
  C   C198      1.0  0.86984  0.42890  0.33875  1.0000
  C   C199      1.0  0.86788  0.41687  0.25644  1.0000
  C   C200      1.0  0.86265  0.39220  0.25494  1.0000
  C   C201      1.0  0.86091  0.37984  0.17366  1.0000
  C   C202      1.0  0.85627  0.35548  0.17452  1.0000
  H   H118      1.0  0.86307  0.38849  0.11331  1.0000
  H   H119      1.0  0.85510  0.34691  0.11475  1.0000
  H   H120      1.0  0.87102  0.42638  0.19742  1.0000
  C   C203      1.0  0.97922  0.53140  0.25634  1.0000
  C   C204      1.0  0.95330  0.51787  0.25988  1.0000
  H   H121      1.0  0.94344  0.51206  0.20129  1.0000
  C   C205      1.0  0.99214  0.53739  0.17412  1.0000
  H   H122      1.0  0.98284  0.53216  0.11440  1.0000
  C   C206      1.0  0.47764  0.44961  0.25636  1.0000
  C   C207      1.0  0.49119  0.43723  0.25990  1.0000
  H   H123      1.0  0.49701  0.43320  0.20131  1.0000
  C   C208      1.0  0.43247  0.49530  0.33874  1.0000
  C   C209      1.0  0.43906  0.48912  0.25622  1.0000
  C   C210      1.0  0.45151  0.47559  0.25459  1.0000
  C   C211      1.0  0.45871  0.46947  0.17327  1.0000
  C   C212      1.0  0.47166  0.45654  0.17415  1.0000
  H   H124      1.0  0.45479  0.47454  0.11294  1.0000
  H   H125      1.0  0.47690  0.45249  0.11443  1.0000
  H   H126      1.0  0.43523  0.49493  0.19724  1.0000
  C   C213      1.0  0.55946  0.02985  0.25637  1.0000
  C   C214      1.0  0.57184  0.05578  0.25991  1.0000
  H   H127      1.0  0.57588  0.06563  0.20133  1.0000
  C   C215      1.0  0.51375  0.93899  0.33872  1.0000
  C   C216      1.0  0.51993  0.95176  0.25621  1.0000
  C   C217      1.0  0.53346  0.97773  0.25458  1.0000
  C   C218      1.0  0.53959  0.99107  0.17327  1.0000
  C   C219      1.0  0.55252  0.01694  0.17415  1.0000
  H   H128      1.0  0.53451  0.98208  0.11293  1.0000
  H   H129      1.0  0.55657  0.02623  0.11444  1.0000
  H   H130      1.0  0.51413  0.94212  0.19722  1.0000
  C   C220      1.0  0.00543  0.02640  0.34126  1.0000
  C   C221      1.0  0.98267  0.98084  0.34127  1.0000
  C   C222      1.0  0.98303  0.00362  0.34116  1.0000
  H   H131      1.0  0.96669  0.00361  0.34071  1.0000
  C   C223      1.0  0.00544  0.23068  0.34016  1.0000
  C   C224      1.0  0.98279  0.20834  0.34173  1.0000
  C   C225      1.0  0.98300  0.18587  0.34247  1.0000
  H   H132      1.0  0.96664  0.16960  0.34378  1.0000
  H   H133      1.0  0.00543  0.24703  0.33969  1.0000
  C   C226      1.0  0.77806  0.79889  0.33947  1.0000
  C   C227      1.0  0.77839  0.77656  0.34016  1.0000
  C   C228      1.0  0.80073  0.77626  0.34173  1.0000
  C   C229      1.0  0.82320  0.79894  0.34245  1.0000
  C   C230      1.0  0.82351  0.82171  0.34200  1.0000
  C   C231      1.0  0.80072  0.82137  0.34057  1.0000
  H   H134      1.0  0.83947  0.79885  0.34375  1.0000
  H   H135      1.0  0.80061  0.83763  0.34040  1.0000
  H   H136      1.0  0.76205  0.76020  0.33971  1.0000
  H   H137      1.0  0.24885  0.00363  0.33967  1.0000
  C   C232      1.0  0.56111  0.72576  0.33863  1.0000
  C   C233      1.0  0.55352  0.74347  0.33956  1.0000
  C   C234      1.0  0.57094  0.76886  0.34093  1.0000
  C   C235      1.0  0.59631  0.77652  0.34100  1.0000
  C   C236      1.0  0.60430  0.75904  0.34014  1.0000
  C   C237      1.0  0.58652  0.73367  0.33930  1.0000
  H   H138      1.0  0.60902  0.79493  0.34214  1.0000
  H   H139      1.0  0.59208  0.72085  0.33907  1.0000
  H   H140      1.0  0.53510  0.73780  0.33949  1.0000
  C   C238      1.0  0.28331  0.83717  0.33865  1.0000
  C   C239      1.0  0.26561  0.81188  0.33956  1.0000
  C   C240      1.0  0.24022  0.80390  0.34092  1.0000
  C   C241      1.0  0.25002  0.84707  0.34016  1.0000
  C   C242      1.0  0.27540  0.85467  0.33932  1.0000
  H   H141      1.0  0.28821  0.87306  0.33910  1.0000
  H   H142      1.0  0.27128  0.79912  0.33947  1.0000
  C   C243      1.0  0.44970  0.17020  0.34233  1.0000
  C   C244      1.0  0.45729  0.19549  0.34146  1.0000
  C   C245      1.0  0.43988  0.20347  0.34019  1.0000
  C   C246      1.0  0.41451  0.18577  0.34018  1.0000
  C   C247      1.0  0.40651  0.16030  0.34096  1.0000
  C   C248      1.0  0.42429  0.15270  0.34170  1.0000
  H   H143      1.0  0.40180  0.19147  0.33915  1.0000
  H   H144      1.0  0.41872  0.13431  0.34194  1.0000
  H   H145      1.0  0.47572  0.20825  0.34160  1.0000
  C   C249      1.0  0.72775  0.55936  0.34231  1.0000
  C   C250      1.0  0.74545  0.55177  0.34145  1.0000
  C   C251      1.0  0.77084  0.56918  0.34019  1.0000
  C   C252      1.0  0.77851  0.59456  0.34020  1.0000
  C   C253      1.0  0.76103  0.60255  0.34096  1.0000
  C   C254      1.0  0.73566  0.58477  0.34167  1.0000
  H   H146      1.0  0.79692  0.60726  0.33918  1.0000
  H   H147      1.0  0.72284  0.59034  0.34190  1.0000
  H   H148      1.0  0.73977  0.53334  0.34159  1.0000
  C   C255      1.0  0.83887  0.28132  0.34230  1.0000
  C   C256      1.0  0.81358  0.26361  0.34143  1.0000
  C   C257      1.0  0.80560  0.23823  0.34017  1.0000
  C   C258      1.0  0.82330  0.23056  0.34020  1.0000
  C   C259      1.0  0.84877  0.24804  0.34096  1.0000
  C   C260      1.0  0.85637  0.27341  0.34167  1.0000
  H   H149      1.0  0.81760  0.21215  0.33916  1.0000
  H   H150      1.0  0.87475  0.28623  0.34191  1.0000
  H   H151      1.0  0.80082  0.26929  0.34156  1.0000
  C   C261      1.0  0.42215  0.51076  0.34088  1.0000
  C   C262      1.0  0.43782  0.53650  0.34174  1.0000
  C   C263      1.0  0.42806  0.55246  0.34220  1.0000
  C   C264      1.0  0.40225  0.54239  0.34195  1.0000
  C   C265      1.0  0.38631  0.51659  0.34115  1.0000
  C   C266      1.0  0.39643  0.50089  0.34041  1.0000
  H   H152      1.0  0.39505  0.55389  0.34222  1.0000
  H   H153      1.0  0.38502  0.48218  0.33916  1.0000
  H   H154      1.0  0.45654  0.54368  0.34183  1.0000
  C   C267      1.0  0.49830  0.91321  0.34088  1.0000
  C   C268      1.0  0.47256  0.90314  0.34173  1.0000
  C   C269      1.0  0.45661  0.87741  0.34219  1.0000
  C   C270      1.0  0.46668  0.86167  0.34194  1.0000
  C   C271      1.0  0.49248  0.87155  0.34116  1.0000
  C   C272      1.0  0.50817  0.89736  0.34040  1.0000
  H   H155      1.0  0.45519  0.84298  0.34222  1.0000
  H   H156      1.0  0.52689  0.90467  0.33915  1.0000
  H   H157      1.0  0.46537  0.91466  0.34182  1.0000
  C   C273      1.0  0.58851  0.09409  0.34294  1.0000
  C   C274      1.0  0.57290  0.10423  0.34161  1.0000
  C   C275      1.0  0.58274  0.12997  0.34086  1.0000
  C   C276      1.0  0.60856  0.14565  0.34105  1.0000
  C   C277      1.0  0.62443  0.13570  0.34206  1.0000
  C   C278      1.0  0.61424  0.10988  0.34309  1.0000
  H   H158      1.0  0.61581  0.16434  0.34045  1.0000
  H   H159      1.0  0.62560  0.10252  0.34406  1.0000
  H   H160      1.0  0.55418  0.09275  0.34122  1.0000
  C   C279      1.0  0.51285  0.42057  0.34294  1.0000
  C   C280      1.0  0.53859  0.43617  0.34159  1.0000
  C   C281      1.0  0.55448  0.42633  0.34084  1.0000
  C   C282      1.0  0.54434  0.40051  0.34106  1.0000
  C   C283      1.0  0.51852  0.38464  0.34209  1.0000
  C   C284      1.0  0.50289  0.39483  0.34311  1.0000
  H   H161      1.0  0.55578  0.39325  0.34046  1.0000
  H   H162      1.0  0.48417  0.38348  0.34409  1.0000
  H   H163      1.0  0.54583  0.45489  0.34117  1.0000
  C   C285      1.0  0.91498  0.49622  0.34291  1.0000
  C   C286      1.0  0.90483  0.47047  0.34162  1.0000
  C   C287      1.0  0.87910  0.45459  0.34087  1.0000
  C   C288      1.0  0.86342  0.46474  0.34107  1.0000
  C   C289      1.0  0.87338  0.49055  0.34206  1.0000
  C   C290      1.0  0.89919  0.50618  0.34306  1.0000
  H   H164      1.0  0.84473  0.45330  0.34049  1.0000
  H   H165      1.0  0.90656  0.52490  0.34401  1.0000
  H   H166      1.0  0.91631  0.46324  0.34122  1.0000
  C   C291      1.0  0.00533  0.15041  0.42397  1.0000
  N   N24       1.0  0.00533  0.12867  0.41871  1.0000
  C   C292      1.0  0.00543  0.11729  0.34105  1.0000
  C   C293      1.0  0.00543  0.09460  0.34050  1.0000
  C   C294      1.0  0.00533  0.06121  0.42028  1.0000
  N   N25       1.0  0.00533  0.08292  0.41780  1.0000
  H   H167      1.0  0.00525  0.05374  0.48136  1.0000
  C   C295      1.0  0.00521  0.15943  0.51575  1.0000
  H   H168      1.0  0.00525  0.17681  0.51633  1.0000
  H   H169      1.0  0.98883  0.14580  0.55140  1.0000
  C   C296      1.0  0.84634  0.84456  0.34345  1.0000
  C   C297      1.0  0.85865  0.85673  0.42395  1.0000
  N   N26       1.0  0.88038  0.87847  0.41870  1.0000
  C   C298      1.0  0.89177  0.88996  0.34104  1.0000
  C   C299      1.0  0.91446  0.91264  0.34050  1.0000
  C   C300      1.0  0.94785  0.94592  0.42028  1.0000
  N   N27       1.0  0.92614  0.92422  0.41780  1.0000
  H   H170      1.0  0.95532  0.95332  0.48136  1.0000
  C   C301      1.0  0.84963  0.84760  0.51574  1.0000
  H   H171      1.0  0.83224  0.83025  0.51632  1.0000
  H   H172      1.0  0.84698  0.86121  0.55202  1.0000
  H   H173      1.0  0.86326  0.84484  0.55140  1.0000
  C   C302      1.0  0.71774  0.78936  0.42400  1.0000
  C   C303      1.0  0.74252  0.79490  0.42117  1.0000
  H   H174      1.0  0.75145  0.79599  0.48010  1.0000
  C   C304      1.0  0.62977  0.76670  0.34180  1.0000
  C   C305      1.0  0.64226  0.76982  0.42393  1.0000
  C   C306      1.0  0.66743  0.77661  0.42530  1.0000
  C   C307      1.0  0.68018  0.77952  0.50661  1.0000
  C   C308      1.0  0.70507  0.78581  0.50596  1.0000
  H   H175      1.0  0.67139  0.77687  0.56694  1.0000
  H   H176      1.0  0.71380  0.78756  0.56584  1.0000
  H   H177      1.0  0.63288  0.76690  0.48315  1.0000
  C   C309      1.0  0.24236  0.86487  0.34181  1.0000
  C   C310      1.0  0.23924  0.87425  0.42395  1.0000
  H   H178      1.0  0.24216  0.86779  0.48317  1.0000
  C   C311      1.0  0.25605  0.04841  0.34257  1.0000
  C   C312      1.0  0.26944  0.05898  0.42303  1.0000
  N   N28       1.0  0.29328  0.07752  0.41735  1.0000
  C   C313      1.0  0.30570  0.08699  0.33930  1.0000
  C   C314      1.0  0.33078  0.10574  0.33881  1.0000
  C   C315      1.0  0.36758  0.13296  0.41955  1.0000
  N   N29       1.0  0.34343  0.11527  0.41657  1.0000
  H   H179      1.0  0.37581  0.13903  0.48072  1.0000
  C   C316      1.0  0.25979  0.05085  0.51498  1.0000
  H   H180      1.0  0.24059  0.03624  0.51587  1.0000
  H   H181      1.0  0.26123  0.06641  0.55279  1.0000
  H   H182      1.0  0.27070  0.04411  0.54884  1.0000
  C   C317      1.0  0.79967  0.75304  0.34268  1.0000
  C   C318      1.0  0.79679  0.73962  0.42311  1.0000
  N   N30       1.0  0.79148  0.71578  0.41742  1.0000
  C   C319      1.0  0.78853  0.70336  0.33937  1.0000
  C   C320      1.0  0.78220  0.67827  0.33885  1.0000
  C   C321      1.0  0.77263  0.64148  0.41956  1.0000
  N   N31       1.0  0.77908  0.66562  0.41661  1.0000
  H   H183      1.0  0.77047  0.63324  0.48074  1.0000
  C   C322      1.0  0.79830  0.74926  0.51505  1.0000
  H   H184      1.0  0.80293  0.76848  0.51594  1.0000
  H   H185      1.0  0.81241  0.74780  0.55292  1.0000
  H   H186      1.0  0.78064  0.73837  0.54885  1.0000
  C   C323      1.0  0.96064  0.20942  0.34268  1.0000
  C   C324      1.0  0.95009  0.21229  0.42311  1.0000
  N   N32       1.0  0.93156  0.21759  0.41742  1.0000
  C   C325      1.0  0.92209  0.22054  0.33937  1.0000
  C   C326      1.0  0.90334  0.22687  0.33886  1.0000
  C   C327      1.0  0.87610  0.23644  0.41956  1.0000
  N   N33       1.0  0.89380  0.22999  0.41661  1.0000
  H   H187      1.0  0.87003  0.23860  0.48074  1.0000
  C   C328      1.0  0.95822  0.21077  0.51506  1.0000
  H   H188      1.0  0.97281  0.20614  0.51594  1.0000
  H   H189      1.0  0.94265  0.19666  0.55290  1.0000
  H   H190      1.0  0.96499  0.22843  0.54888  1.0000
  C   C329      1.0  0.24484  0.45320  0.42259  1.0000
  N   N34       1.0  0.26979  0.46439  0.41680  1.0000
  C   C330      1.0  0.28264  0.47004  0.33858  1.0000
  C   C331      1.0  0.30865  0.48215  0.33817  1.0000
  C   C332      1.0  0.34663  0.49984  0.41944  1.0000
  N   N35       1.0  0.32168  0.48827  0.41619  1.0000
  H   H191      1.0  0.35510  0.50352  0.48068  1.0000
  C   C333      1.0  0.23455  0.44930  0.51452  1.0000
  H   H192      1.0  0.24166  0.46703  0.54810  1.0000
  H   H193      1.0  0.24016  0.43806  0.55261  1.0000
  C   C334      1.0  0.56239  0.78595  0.34204  1.0000
  C   C335      1.0  0.55586  0.79346  0.42258  1.0000
  N   N36       1.0  0.54467  0.80722  0.41680  1.0000
  C   C336      1.0  0.53903  0.81442  0.33858  1.0000
  C   C337      1.0  0.52691  0.82831  0.33817  1.0000
  C   C338      1.0  0.50922  0.84860  0.41943  1.0000
  N   N37       1.0  0.52079  0.83522  0.41618  1.0000
  H   H194      1.0  0.50555  0.85340  0.48068  1.0000
  C   C339      1.0  0.55976  0.78707  0.51453  1.0000
  H   H195      1.0  0.56903  0.77630  0.51542  1.0000
  H   H196      1.0  0.54202  0.77643  0.54808  1.0000
  H   H197      1.0  0.57098  0.80392  0.55263  1.0000
  C   C340      1.0  0.46559  0.26768  0.42542  1.0000
  C   C341      1.0  0.45396  0.24175  0.42225  1.0000
  H   H198      1.0  0.45001  0.23201  0.48107  1.0000
  C   C342      1.0  0.50806  0.35876  0.34361  1.0000
  C   C343      1.0  0.50184  0.34583  0.42583  1.0000
  C   C344      1.0  0.48983  0.31984  0.42714  1.0000
  C   C345      1.0  0.48348  0.30649  0.50842  1.0000
  C   C346      1.0  0.47152  0.28063  0.50757  1.0000
  H   H199      1.0  0.48759  0.31546  0.56882  1.0000
  H   H200      1.0  0.46724  0.27136  0.56738  1.0000
  H   H201      1.0  0.50588  0.35539  0.48504  1.0000
  C   C347      1.0  0.80936  0.54349  0.42543  1.0000
  C   C348      1.0  0.79506  0.55512  0.42227  1.0000
  H   H202      1.0  0.78926  0.55906  0.48109  1.0000
  C   C349      1.0  0.85796  0.50101  0.34357  1.0000
  C   C350      1.0  0.85125  0.50724  0.42581  1.0000
  C   C351      1.0  0.83728  0.51925  0.42713  1.0000
  C   C352      1.0  0.83027  0.52560  0.50842  1.0000
  C   C353      1.0  0.81637  0.53756  0.50757  1.0000
  H   H203      1.0  0.83513  0.52148  0.56881  1.0000
  H   H204      1.0  0.81139  0.54184  0.56738  1.0000
  H   H205      1.0  0.85677  0.50319  0.48501  1.0000
  C   C354      1.0  0.74140  0.19971  0.42540  1.0000
  C   C355      1.0  0.76732  0.21400  0.42225  1.0000
  H   H206      1.0  0.77706  0.21981  0.48106  1.0000
  C   C356      1.0  0.65031  0.15113  0.34358  1.0000
  C   C357      1.0  0.66325  0.15783  0.42581  1.0000
  C   C358      1.0  0.68923  0.17180  0.42712  1.0000
  C   C359      1.0  0.70259  0.17880  0.50840  1.0000
  C   C360      1.0  0.72844  0.19269  0.50755  1.0000
  H   H207      1.0  0.69362  0.17394  0.56880  1.0000
  H   H208      1.0  0.73771  0.19767  0.56736  1.0000
  H   H209      1.0  0.65368  0.15231  0.48501  1.0000
  C   C361      1.0  0.51399  0.66402  0.42485  1.0000
  C   C362      1.0  0.53377  0.68847  0.42127  1.0000
  H   H210      1.0  0.54127  0.69777  0.47994  1.0000
  C   C363      1.0  0.44456  0.57814  0.34389  1.0000
  C   C364      1.0  0.45467  0.59025  0.42603  1.0000
  C   C365      1.0  0.47410  0.61493  0.42718  1.0000
  C   C366      1.0  0.48476  0.62735  0.50829  1.0000
  C   C367      1.0  0.50448  0.65172  0.50715  1.0000
  H   H211      1.0  0.47832  0.61875  0.56876  1.0000
  H   H212      1.0  0.51191  0.66034  0.56681  1.0000
  H   H213      1.0  0.44834  0.58080  0.48519  1.0000
  C   C368      1.0  0.34506  0.85180  0.42486  1.0000
  C   C369      1.0  0.32061  0.84714  0.42129  1.0000
  H   H214      1.0  0.31130  0.84532  0.47996  1.0000
  C   C370      1.0  0.43093  0.86823  0.34389  1.0000
  C   C371      1.0  0.41882  0.86625  0.42603  1.0000
  C   C372      1.0  0.39414  0.86099  0.42719  1.0000
  C   C373      1.0  0.38172  0.85923  0.50830  1.0000
  C   C374      1.0  0.35735  0.85458  0.50715  1.0000
  H   H215      1.0  0.39032  0.86139  0.56876  1.0000
  H   H216      1.0  0.34873  0.85340  0.56682  1.0000
  H   H217      1.0  0.42827  0.86936  0.48519  1.0000
  C   C375      1.0  0.46779  0.16297  0.34305  1.0000
  C   C376      1.0  0.47898  0.16108  0.42337  1.0000
  N   N38       1.0  0.49803  0.15662  0.41714  1.0000
  C   C377      1.0  0.50745  0.15387  0.33870  1.0000
  C   C378      1.0  0.52741  0.14940  0.33795  1.0000
  C   C379      1.0  0.55632  0.14247  0.41895  1.0000
  N   N39       1.0  0.53755  0.14733  0.41588  1.0000
  H   H218      1.0  0.56240  0.14035  0.48017  1.0000
  C   C380      1.0  0.47181  0.16388  0.51545  1.0000
  H   H219      1.0  0.45629  0.16713  0.51670  1.0000
  H   H220      1.0  0.48738  0.17937  0.54847  1.0000
  H   H221      1.0  0.46668  0.14719  0.55385  1.0000
  C   C381      1.0  0.70243  0.54126  0.34301  1.0000
  C   C382      1.0  0.68935  0.53008  0.42333  1.0000
  N   N40       1.0  0.66584  0.51103  0.41710  1.0000
  C   C383      1.0  0.65367  0.50161  0.33865  1.0000
  C   C384      1.0  0.62924  0.48165  0.33791  1.0000
  C   C385      1.0  0.59341  0.45273  0.41891  1.0000
  N   N41       1.0  0.61704  0.47151  0.41583  1.0000
  H   H222      1.0  0.58519  0.44666  0.48012  1.0000
  C   C386      1.0  0.69933  0.53725  0.51541  1.0000
  H   H223      1.0  0.71809  0.55277  0.51667  1.0000
  H   H224      1.0  0.69923  0.52168  0.54844  1.0000
  H   H225      1.0  0.68775  0.54238  0.55380  1.0000
  C   C387      1.0  0.84609  0.30663  0.34301  1.0000
  C   C388      1.0  0.84799  0.31971  0.42335  1.0000
  N   N42       1.0  0.85245  0.34322  0.41713  1.0000
  C   C389      1.0  0.85520  0.35540  0.33871  1.0000
  C   C390      1.0  0.85967  0.37982  0.33797  1.0000
  C   C391      1.0  0.86660  0.41566  0.41900  1.0000
  N   N43       1.0  0.86174  0.39203  0.41591  1.0000
  H   H226      1.0  0.86870  0.42386  0.48022  1.0000
  C   C392      1.0  0.84518  0.30973  0.51543  1.0000
  H   H227      1.0  0.84193  0.29097  0.51667  1.0000
  H   H228      1.0  0.82971  0.30983  0.54845  1.0000
  H   H229      1.0  0.86188  0.32130  0.55382  1.0000
  C   C393      1.0  0.94082  0.51164  0.34315  1.0000
  C   C394      1.0  0.95489  0.51931  0.42348  1.0000
  N   N44       1.0  0.97983  0.53236  0.41701  1.0000
  C   C395      1.0  0.99249  0.53869  0.33836  1.0000
  C   C396      1.0  0.94471  0.51383  0.51571  1.0000
  H   H230      1.0  0.92466  0.50346  0.51706  1.0000
  H   H231      1.0  0.95077  0.53104  0.55194  1.0000
  H   H232      1.0  0.95146  0.50312  0.55092  1.0000
  C   C397      1.0  0.49742  0.43099  0.34317  1.0000
  C   C398      1.0  0.48974  0.43738  0.42351  1.0000
  N   N45       1.0  0.47668  0.44926  0.41703  1.0000
  C   C399      1.0  0.47035  0.45559  0.33838  1.0000
  C   C400      1.0  0.45729  0.46849  0.33764  1.0000
  C   C401      1.0  0.43860  0.48770  0.41902  1.0000
  N   N46       1.0  0.45064  0.47481  0.41575  1.0000
  H   H233      1.0  0.43462  0.49222  0.48027  1.0000
  C   C402      1.0  0.49522  0.43267  0.51574  1.0000
  H   H234      1.0  0.50561  0.42301  0.51709  1.0000
  H   H235      1.0  0.47801  0.42151  0.55195  1.0000
  H   H236      1.0  0.50592  0.45014  0.55096  1.0000
  C   C403      1.0  0.57810  0.06825  0.34319  1.0000
  C   C404      1.0  0.57168  0.05418  0.42352  1.0000
  N   N47       1.0  0.55979  0.02924  0.41704  1.0000
  C   C405      1.0  0.55347  0.01658  0.33839  1.0000
  C   C406      1.0  0.54056  0.99062  0.33763  1.0000
  C   C407      1.0  0.52136  0.95272  0.41901  1.0000
  N   N48       1.0  0.53424  0.97764  0.41574  1.0000
  H   H237      1.0  0.51684  0.94422  0.48025  1.0000
  C   C408      1.0  0.57639  0.06436  0.51575  1.0000
  H   H238      1.0  0.58606  0.08441  0.51710  1.0000
  H   H239      1.0  0.58753  0.05830  0.55200  1.0000
  H   H240      1.0  0.55891  0.05761  0.55094  1.0000
