data_image0
_chemical_formula_structural       C8H4C4NH3C3N2C17H12N2CNH3C8H4C4NH3C3N2C17H12N2CNH3C8H4C4NH3C3N2C17H12N2CNH3C8H4C4NH3C3N2C17H12N2CNH3C8H4C4NH3C3N2C17H12N2CNH3C8H4C4NH3C3N2C17H12N2CNH3C8H4C4NH3C3N2C17H12N2CNH3C8H4C4NH3C3N2C17H12N2CNH3C8H4C4NH3C3N2C17H12N2CNH3
_chemical_formula_sum              "C297 H198 N54"
_cell_length_a       36.2005
_cell_length_b       36.2011
_cell_length_c       15.0819
_cell_angle_alpha    90
_cell_angle_beta     90
_cell_angle_gamma    90.0702

_space_group_name_H-M_alt    "P 1"
_space_group_IT_number       1

loop_
  _space_group_symop_operation_xyz
  'x, y, z'

loop_
  _atom_site_type_symbol
  _atom_site_label
  _atom_site_symmetry_multiplicity
  _atom_site_fract_x
  _atom_site_fract_y
  _atom_site_fract_z
  _atom_site_occupancy
  C   C1        1.0  0.03655  0.03302  0.00737  1.0000
  C   C2        1.0  0.06295  0.03426  0.07554  1.0000
  C   C3        1.0  0.07931  0.33445  0.10538  1.0000
  C   C4        1.0  0.06160  0.30070  0.08505  1.0000
  C   C5        1.0  0.03515  0.29976  0.01691  1.0000
  C   C6        1.0  0.24777  0.29702  0.02578  1.0000
  C   C7        1.0  0.23122  0.99740  0.05012  1.0000
  C   C8        1.0  0.24858  0.03097  0.02789  1.0000
  H   H1        1.0  0.07578  0.05904  0.08751  1.0000
  H   H2        1.0  0.07359  0.27613  0.10266  1.0000
  H   H3        1.0  0.23467  0.27240  0.03765  1.0000
  H   H4        1.0  0.23609  0.05575  0.04123  1.0000
  C   C9        1.0  0.01926  0.20098  0.34274  1.0000
  C   C10       1.0  0.99552  0.18293  0.28209  1.0000
  C   C11       1.0  0.32856  0.14381  0.27591  1.0000
  C   C12       1.0  0.35217  0.12364  0.33385  1.0000
  N   N1        1.0  0.30584  0.12689  0.21678  1.0000
  H   H5        1.0  0.29070  0.14120  0.17599  1.0000
  H   H6        1.0  0.30728  0.10042  0.20662  1.0000
  H   H7        1.0  0.97734  0.19814  0.24514  1.0000
  C   C13       1.0  0.11782  0.99990  0.09219  1.0000
  C   C14       1.0  0.13109  0.99836  0.00416  1.0000
  C   C15       1.0  0.19289  0.99777  0.06164  1.0000
  N   N2        1.0  0.17831  0.99928  0.14472  1.0000
  N   N3        1.0  0.14266  0.00027  0.15952  1.0000
  C   C16       1.0  0.34866  0.23771  0.37476  1.0000
  C   C17       1.0  0.31331  0.25366  0.38593  1.0000
  C   C18       1.0  0.30814  0.28369  0.44376  1.0000
  C   C19       1.0  0.33752  0.29786  0.49616  1.0000
  C   C20       1.0  0.04002  0.28419  0.47699  1.0000
  C   C21       1.0  0.04554  0.25493  0.41768  1.0000
  C   C22       1.0  0.33197  0.99731  0.55805  1.0000
  C   C23       1.0  0.33680  0.02850  0.49118  1.0000
  C   C24       1.0  0.03924  0.03927  0.46235  1.0000
  C   C25       1.0  0.04442  0.06731  0.39941  1.0000
  C   C26       1.0  0.34723  0.08667  0.36387  1.0000
  C   C27       1.0  0.31143  0.07388  0.38584  1.0000
  C   C28       1.0  0.30648  0.04447  0.44555  1.0000
  C   C29       1.0  0.29591  0.99725  0.60956  1.0000
  C   C30       1.0  0.02502  0.33224  0.63657  1.0000
  C   C31       1.0  0.28000  0.29712  0.64089  1.0000
  C   C32       1.0  0.28085  0.03068  0.64320  1.0000
  H   H8        1.0  0.02847  0.05751  0.64648  1.0000
  H   H9        1.0  0.02609  0.27445  0.66269  1.0000
  H   H10       1.0  0.29084  0.27213  0.62318  1.0000
  H   H11       1.0  0.29230  0.05560  0.62684  1.0000
  H   H12       1.0  0.28003  0.03649  0.45967  1.0000
  H   H13       1.0  0.28839  0.08782  0.36535  1.0000
  H   H14       1.0  0.07084  0.07608  0.38693  1.0000
  H   H15       1.0  0.06230  0.02785  0.49017  1.0000
  H   H16       1.0  0.06274  0.29462  0.50854  1.0000
  H   H17       1.0  0.28198  0.29392  0.45090  1.0000
  H   H18       1.0  0.29038  0.24179  0.35822  1.0000
  H   H19       1.0  0.07171  0.24447  0.41153  1.0000
  N   N4        1.0  0.37502  0.14349  0.38697  1.0000
  N   N5        1.0  0.04205  0.17917  0.39092  1.0000
  C   C33       1.0  0.16911  0.99745  0.65343  1.0000
  N   N6        1.0  0.18063  0.99652  0.56743  1.0000
  H   H20       1.0  0.16306  0.99651  0.51857  1.0000
  H   H21       1.0  0.20660  0.99625  0.55154  1.0000
  H   H22       1.0  0.11288  0.99814  0.61875  1.0000
  C   C34       1.0  0.03655  0.36635  0.00737  1.0000
  C   C35       1.0  0.06295  0.36759  0.07554  1.0000
  C   C36       1.0  0.07931  0.66779  0.10538  1.0000
  C   C37       1.0  0.06160  0.63404  0.08505  1.0000
  C   C38       1.0  0.03515  0.63310  0.01691  1.0000
  C   C39       1.0  0.24777  0.63035  0.02578  1.0000
  C   C40       1.0  0.23122  0.33074  0.05012  1.0000
  C   C41       1.0  0.24858  0.36431  0.02789  1.0000
  H   H23       1.0  0.07578  0.39237  0.08751  1.0000
  H   H24       1.0  0.07359  0.60946  0.10266  1.0000
  H   H25       1.0  0.23467  0.60573  0.03765  1.0000
  H   H26       1.0  0.23609  0.38909  0.04123  1.0000
  C   C42       1.0  0.01926  0.53431  0.34274  1.0000
  C   C43       1.0  0.99552  0.51626  0.28209  1.0000
  C   C44       1.0  0.32856  0.47714  0.27591  1.0000
  C   C45       1.0  0.35217  0.45697  0.33385  1.0000
  N   N7        1.0  0.30584  0.46023  0.21678  1.0000
  H   H27       1.0  0.29070  0.47453  0.17599  1.0000
  H   H28       1.0  0.30728  0.43375  0.20662  1.0000
  H   H29       1.0  0.97735  0.53148  0.24514  1.0000
  C   C46       1.0  0.11782  0.33324  0.09219  1.0000
  C   C47       1.0  0.13109  0.33169  0.00416  1.0000
  C   C48       1.0  0.19289  0.33110  0.06164  1.0000
  N   N8        1.0  0.17831  0.33261  0.14472  1.0000
  N   N9        1.0  0.14266  0.33360  0.15952  1.0000
  C   C49       1.0  0.34866  0.57105  0.37476  1.0000
  C   C50       1.0  0.31331  0.58699  0.38593  1.0000
  C   C51       1.0  0.30814  0.61703  0.44376  1.0000
  C   C52       1.0  0.33752  0.63119  0.49616  1.0000
  C   C53       1.0  0.04002  0.61752  0.47699  1.0000
  C   C54       1.0  0.04554  0.58826  0.41768  1.0000
  C   C55       1.0  0.33197  0.33065  0.55805  1.0000
  C   C56       1.0  0.33680  0.36183  0.49118  1.0000
  C   C57       1.0  0.03924  0.37260  0.46235  1.0000
  C   C58       1.0  0.04442  0.40064  0.39941  1.0000
  C   C59       1.0  0.34723  0.42000  0.36387  1.0000
  C   C60       1.0  0.31143  0.40721  0.38584  1.0000
  C   C61       1.0  0.30648  0.37780  0.44555  1.0000
  C   C62       1.0  0.29591  0.33058  0.60956  1.0000
  C   C63       1.0  0.02502  0.66557  0.63657  1.0000
  C   C64       1.0  0.28000  0.63046  0.64089  1.0000
  C   C65       1.0  0.28085  0.36402  0.64320  1.0000
  H   H30       1.0  0.02847  0.39084  0.64648  1.0000
  H   H31       1.0  0.02609  0.60779  0.66269  1.0000
  H   H32       1.0  0.29084  0.60546  0.62318  1.0000
  H   H33       1.0  0.29230  0.38893  0.62684  1.0000
  H   H34       1.0  0.28003  0.36982  0.45967  1.0000
  H   H35       1.0  0.28839  0.42115  0.36535  1.0000
  H   H36       1.0  0.07084  0.40941  0.38693  1.0000
  H   H37       1.0  0.06230  0.36118  0.49017  1.0000
  H   H38       1.0  0.06274  0.62795  0.50854  1.0000
  H   H39       1.0  0.28198  0.62725  0.45090  1.0000
  H   H40       1.0  0.29038  0.57513  0.35822  1.0000
  H   H41       1.0  0.07171  0.57780  0.41153  1.0000
  N   N10       1.0  0.37502  0.47682  0.38697  1.0000
  N   N11       1.0  0.04205  0.51250  0.39092  1.0000
  C   C66       1.0  0.16911  0.33078  0.65343  1.0000
  N   N12       1.0  0.18063  0.32986  0.56743  1.0000
  H   H42       1.0  0.16306  0.32984  0.51857  1.0000
  H   H43       1.0  0.20660  0.32959  0.55154  1.0000
  H   H44       1.0  0.11288  0.33148  0.61875  1.0000
  C   C67       1.0  0.03655  0.69968  0.00737  1.0000
  C   C68       1.0  0.06295  0.70092  0.07554  1.0000
  C   C69       1.0  0.07931  0.00112  0.10538  1.0000
  C   C70       1.0  0.06160  0.96737  0.08505  1.0000
  C   C71       1.0  0.03515  0.96643  0.01691  1.0000
  C   C72       1.0  0.24777  0.96369  0.02578  1.0000
  C   C73       1.0  0.23122  0.66407  0.05012  1.0000
  C   C74       1.0  0.24858  0.69764  0.02789  1.0000
  H   H45       1.0  0.07578  0.72571  0.08751  1.0000
  H   H46       1.0  0.07359  0.94279  0.10266  1.0000
  H   H47       1.0  0.23467  0.93906  0.03765  1.0000
  H   H48       1.0  0.23609  0.72242  0.04123  1.0000
  C   C75       1.0  0.01926  0.86765  0.34274  1.0000
  C   C76       1.0  0.99552  0.84960  0.28209  1.0000
  C   C77       1.0  0.32856  0.81047  0.27591  1.0000
  C   C78       1.0  0.35217  0.79030  0.33385  1.0000
  N   N13       1.0  0.30584  0.79356  0.21678  1.0000
  H   H49       1.0  0.29070  0.80787  0.17599  1.0000
  H   H50       1.0  0.30728  0.76708  0.20662  1.0000
  H   H51       1.0  0.97735  0.86481  0.24514  1.0000
  C   C79       1.0  0.11782  0.66657  0.09219  1.0000
  C   C80       1.0  0.13109  0.66503  0.00416  1.0000
  C   C81       1.0  0.19289  0.66444  0.06164  1.0000
  N   N14       1.0  0.17831  0.66594  0.14472  1.0000
  N   N15       1.0  0.14266  0.66693  0.15952  1.0000
  C   C82       1.0  0.34866  0.90438  0.37476  1.0000
  C   C83       1.0  0.31331  0.92032  0.38593  1.0000
  C   C84       1.0  0.30813  0.95036  0.44376  1.0000
  C   C85       1.0  0.33751  0.96453  0.49616  1.0000
  C   C86       1.0  0.04002  0.95086  0.47699  1.0000
  C   C87       1.0  0.04554  0.92159  0.41768  1.0000
  C   C88       1.0  0.33197  0.66398  0.55805  1.0000
  C   C89       1.0  0.33680  0.69516  0.49118  1.0000
  C   C90       1.0  0.03924  0.70594  0.46235  1.0000
  C   C91       1.0  0.04442  0.73398  0.39941  1.0000
  C   C92       1.0  0.34723  0.75334  0.36387  1.0000
  C   C93       1.0  0.31143  0.74054  0.38584  1.0000
  C   C94       1.0  0.30648  0.71113  0.44555  1.0000
  C   C95       1.0  0.29591  0.66391  0.60956  1.0000
  C   C96       1.0  0.02502  0.99890  0.63657  1.0000
  C   C97       1.0  0.28000  0.96379  0.64089  1.0000
  C   C98       1.0  0.28085  0.69735  0.64320  1.0000
  H   H52       1.0  0.02847  0.72417  0.64648  1.0000
  H   H53       1.0  0.02609  0.94112  0.66269  1.0000
  H   H54       1.0  0.29084  0.93880  0.62318  1.0000
  H   H55       1.0  0.29230  0.72226  0.62684  1.0000
  H   H56       1.0  0.28003  0.70315  0.45967  1.0000
  H   H57       1.0  0.28839  0.75449  0.36535  1.0000
  H   H58       1.0  0.07084  0.74274  0.38693  1.0000
  H   H59       1.0  0.06230  0.69451  0.49017  1.0000
  H   H60       1.0  0.06274  0.96128  0.50854  1.0000
  H   H61       1.0  0.28198  0.96059  0.45090  1.0000
  H   H62       1.0  0.29038  0.90846  0.35822  1.0000
  H   H63       1.0  0.07171  0.91113  0.41153  1.0000
  N   N16       1.0  0.37502  0.81015  0.38697  1.0000
  N   N17       1.0  0.04205  0.84584  0.39092  1.0000
  C   C99       1.0  0.16911  0.66411  0.65343  1.0000
  N   N18       1.0  0.18063  0.66319  0.56743  1.0000
  H   H64       1.0  0.16306  0.66318  0.51857  1.0000
  H   H65       1.0  0.20660  0.66292  0.55154  1.0000
  H   H66       1.0  0.11288  0.66481  0.61875  1.0000
  C   C100      1.0  0.36989  0.03302  0.00737  1.0000
  C   C101      1.0  0.39628  0.03426  0.07554  1.0000
  C   C102      1.0  0.41265  0.33445  0.10538  1.0000
  C   C103      1.0  0.39493  0.30070  0.08505  1.0000
  C   C104      1.0  0.36848  0.29976  0.01691  1.0000
  C   C105      1.0  0.58110  0.29702  0.02578  1.0000
  C   C106      1.0  0.56456  0.99740  0.05012  1.0000
  C   C107      1.0  0.58192  0.03097  0.02789  1.0000
  H   H67       1.0  0.40911  0.05904  0.08751  1.0000
  H   H68       1.0  0.40693  0.27613  0.10266  1.0000
  H   H69       1.0  0.56800  0.27240  0.03765  1.0000
  H   H70       1.0  0.56942  0.05575  0.04123  1.0000
  C   C108      1.0  0.35259  0.20098  0.34274  1.0000
  C   C109      1.0  0.32885  0.18293  0.28209  1.0000
  C   C110      1.0  0.66190  0.14381  0.27591  1.0000
  C   C111      1.0  0.68551  0.12364  0.33385  1.0000
  N   N19       1.0  0.63917  0.12689  0.21678  1.0000
  H   H71       1.0  0.62404  0.14120  0.17599  1.0000
  H   H72       1.0  0.64061  0.10042  0.20662  1.0000
  H   H73       1.0  0.31068  0.19814  0.24514  1.0000
  C   C112      1.0  0.45115  0.99990  0.09219  1.0000
  C   C113      1.0  0.46442  0.99836  0.00416  1.0000
  C   C114      1.0  0.52622  0.99777  0.06164  1.0000
  N   N20       1.0  0.51164  0.99928  0.14472  1.0000
  N   N21       1.0  0.47599  0.00027  0.15952  1.0000
  C   C115      1.0  0.68199  0.23771  0.37476  1.0000
  C   C116      1.0  0.64664  0.25366  0.38593  1.0000
  C   C117      1.0  0.64147  0.28369  0.44376  1.0000
  C   C118      1.0  0.67085  0.29786  0.49616  1.0000
  C   C119      1.0  0.37336  0.28419  0.47699  1.0000
  C   C120      1.0  0.37887  0.25493  0.41768  1.0000
  C   C121      1.0  0.66531  0.99731  0.55805  1.0000
  C   C122      1.0  0.67013  0.02850  0.49118  1.0000
  C   C123      1.0  0.37258  0.03927  0.46235  1.0000
  C   C124      1.0  0.37775  0.06731  0.39941  1.0000
  C   C125      1.0  0.68056  0.08667  0.36387  1.0000
  C   C126      1.0  0.64476  0.07388  0.38584  1.0000
  C   C127      1.0  0.63982  0.04447  0.44555  1.0000
  C   C128      1.0  0.62924  0.99725  0.60956  1.0000
  C   C129      1.0  0.35836  0.33224  0.63657  1.0000
  C   C130      1.0  0.61334  0.29712  0.64089  1.0000
  C   C131      1.0  0.61419  0.03068  0.64320  1.0000
  H   H74       1.0  0.36181  0.05751  0.64648  1.0000
  H   H75       1.0  0.35942  0.27445  0.66269  1.0000
  H   H76       1.0  0.62417  0.27213  0.62318  1.0000
  H   H77       1.0  0.62563  0.05560  0.62684  1.0000
  H   H78       1.0  0.61337  0.03649  0.45967  1.0000
  H   H79       1.0  0.62172  0.08782  0.36535  1.0000
  H   H80       1.0  0.40418  0.07608  0.38693  1.0000
  H   H81       1.0  0.39564  0.02785  0.49017  1.0000
  H   H82       1.0  0.39607  0.29462  0.50854  1.0000
  H   H83       1.0  0.61531  0.29392  0.45090  1.0000
  H   H84       1.0  0.62372  0.24179  0.35822  1.0000
  H   H85       1.0  0.40504  0.24447  0.41153  1.0000
  N   N22       1.0  0.70835  0.14349  0.38697  1.0000
  N   N23       1.0  0.37538  0.17917  0.39092  1.0000
  C   C132      1.0  0.50244  0.99745  0.65343  1.0000
  N   N24       1.0  0.51397  0.99652  0.56743  1.0000
  H   H86       1.0  0.49639  0.99651  0.51857  1.0000
  H   H87       1.0  0.53994  0.99625  0.55154  1.0000
  H   H88       1.0  0.44621  0.99814  0.61875  1.0000
  C   C133      1.0  0.36989  0.36635  0.00737  1.0000
  C   C134      1.0  0.39628  0.36759  0.07554  1.0000
  C   C135      1.0  0.41265  0.66779  0.10538  1.0000
  C   C136      1.0  0.39493  0.63404  0.08505  1.0000
  C   C137      1.0  0.36848  0.63310  0.01691  1.0000
  C   C138      1.0  0.58110  0.63035  0.02578  1.0000
  C   C139      1.0  0.56456  0.33074  0.05012  1.0000
  C   C140      1.0  0.58192  0.36431  0.02789  1.0000
  H   H89       1.0  0.40911  0.39237  0.08751  1.0000
  H   H90       1.0  0.40693  0.60946  0.10266  1.0000
  H   H91       1.0  0.56800  0.60573  0.03765  1.0000
  H   H92       1.0  0.56942  0.38909  0.04123  1.0000
  C   C141      1.0  0.35259  0.53431  0.34274  1.0000
  C   C142      1.0  0.32886  0.51626  0.28209  1.0000
  C   C143      1.0  0.66190  0.47714  0.27591  1.0000
  C   C144      1.0  0.68551  0.45697  0.33385  1.0000
  N   N25       1.0  0.63918  0.46023  0.21678  1.0000
  H   H93       1.0  0.62404  0.47453  0.17599  1.0000
  H   H94       1.0  0.64061  0.43375  0.20662  1.0000
  H   H95       1.0  0.31068  0.53148  0.24514  1.0000
  C   C145      1.0  0.45115  0.33324  0.09219  1.0000
  C   C146      1.0  0.46442  0.33169  0.00416  1.0000
  C   C147      1.0  0.52622  0.33110  0.06164  1.0000
  N   N26       1.0  0.51164  0.33261  0.14472  1.0000
  N   N27       1.0  0.47599  0.33360  0.15952  1.0000
  C   C148      1.0  0.68199  0.57105  0.37476  1.0000
  C   C149      1.0  0.64664  0.58699  0.38593  1.0000
  C   C150      1.0  0.64147  0.61703  0.44376  1.0000
  C   C151      1.0  0.67085  0.63119  0.49616  1.0000
  C   C152      1.0  0.37336  0.61752  0.47699  1.0000
  C   C153      1.0  0.37887  0.58826  0.41768  1.0000
  C   C154      1.0  0.66531  0.33065  0.55805  1.0000
  C   C155      1.0  0.67013  0.36183  0.49118  1.0000
  C   C156      1.0  0.37258  0.37260  0.46235  1.0000
  C   C157      1.0  0.37775  0.40064  0.39941  1.0000
  C   C158      1.0  0.68056  0.42000  0.36387  1.0000
  C   C159      1.0  0.64476  0.40721  0.38584  1.0000
  C   C160      1.0  0.63982  0.37780  0.44555  1.0000
  C   C161      1.0  0.62924  0.33058  0.60956  1.0000
  C   C162      1.0  0.35836  0.66557  0.63657  1.0000
  C   C163      1.0  0.61334  0.63046  0.64089  1.0000
  C   C164      1.0  0.61419  0.36402  0.64320  1.0000
  H   H96       1.0  0.36180  0.39084  0.64648  1.0000
  H   H97       1.0  0.35942  0.60779  0.66269  1.0000
  H   H98       1.0  0.62417  0.60546  0.62318  1.0000
  H   H99       1.0  0.62563  0.38893  0.62684  1.0000
  H   H100      1.0  0.61337  0.36982  0.45967  1.0000
  H   H101      1.0  0.62172  0.42115  0.36535  1.0000
  H   H102      1.0  0.40418  0.40941  0.38693  1.0000
  H   H103      1.0  0.39564  0.36118  0.49017  1.0000
  H   H104      1.0  0.39607  0.62795  0.50854  1.0000
  H   H105      1.0  0.61531  0.62725  0.45090  1.0000
  H   H106      1.0  0.62372  0.57513  0.35822  1.0000
  H   H107      1.0  0.40504  0.57780  0.41153  1.0000
  N   N28       1.0  0.70835  0.47682  0.38697  1.0000
  N   N29       1.0  0.37538  0.51250  0.39092  1.0000
  C   C165      1.0  0.50244  0.33078  0.65343  1.0000
  N   N30       1.0  0.51397  0.32986  0.56743  1.0000
  H   H108      1.0  0.49639  0.32984  0.51857  1.0000
  H   H109      1.0  0.53994  0.32959  0.55154  1.0000
  H   H110      1.0  0.44621  0.33148  0.61875  1.0000
  C   C166      1.0  0.36989  0.69968  0.00737  1.0000
  C   C167      1.0  0.39628  0.70092  0.07554  1.0000
  C   C168      1.0  0.41265  0.00112  0.10538  1.0000
  C   C169      1.0  0.39493  0.96737  0.08505  1.0000
  C   C170      1.0  0.36848  0.96643  0.01691  1.0000
  C   C171      1.0  0.58111  0.96369  0.02578  1.0000
  C   C172      1.0  0.56456  0.66407  0.05012  1.0000
  C   C173      1.0  0.58192  0.69764  0.02789  1.0000
  H   H111      1.0  0.40911  0.72571  0.08751  1.0000
  H   H112      1.0  0.40693  0.94279  0.10266  1.0000
  H   H113      1.0  0.56800  0.93906  0.03765  1.0000
  H   H114      1.0  0.56942  0.72242  0.04123  1.0000
  C   C174      1.0  0.35259  0.86765  0.34274  1.0000
  C   C175      1.0  0.32885  0.84960  0.28209  1.0000
  C   C176      1.0  0.66190  0.81047  0.27591  1.0000
  C   C177      1.0  0.68551  0.79030  0.33385  1.0000
  N   N31       1.0  0.63918  0.79356  0.21678  1.0000
  H   H115      1.0  0.62404  0.80787  0.17599  1.0000
  H   H116      1.0  0.64061  0.76708  0.20662  1.0000
  H   H117      1.0  0.31068  0.86481  0.24514  1.0000
  C   C178      1.0  0.45115  0.66657  0.09219  1.0000
  C   C179      1.0  0.46442  0.66503  0.00416  1.0000
  C   C180      1.0  0.52622  0.66444  0.06164  1.0000
  N   N32       1.0  0.51164  0.66594  0.14472  1.0000
  N   N33       1.0  0.47599  0.66693  0.15952  1.0000
  C   C181      1.0  0.68199  0.90438  0.37476  1.0000
  C   C182      1.0  0.64664  0.92032  0.38593  1.0000
  C   C183      1.0  0.64147  0.95036  0.44376  1.0000
  C   C184      1.0  0.67085  0.96453  0.49616  1.0000
  C   C185      1.0  0.37336  0.95086  0.47699  1.0000
  C   C186      1.0  0.37887  0.92159  0.41768  1.0000
  C   C187      1.0  0.66530  0.66398  0.55805  1.0000
  C   C188      1.0  0.67013  0.69516  0.49118  1.0000
  C   C189      1.0  0.37257  0.70594  0.46235  1.0000
  C   C190      1.0  0.37775  0.73398  0.39941  1.0000
  C   C191      1.0  0.68056  0.75334  0.36387  1.0000
  C   C192      1.0  0.64476  0.74054  0.38584  1.0000
  C   C193      1.0  0.63982  0.71113  0.44555  1.0000
  C   C194      1.0  0.62924  0.66391  0.60956  1.0000
  C   C195      1.0  0.35836  0.99890  0.63657  1.0000
  C   C196      1.0  0.61334  0.96379  0.64089  1.0000
  C   C197      1.0  0.61419  0.69735  0.64320  1.0000
  H   H118      1.0  0.36180  0.72417  0.64648  1.0000
  H   H119      1.0  0.35942  0.94112  0.66269  1.0000
  H   H120      1.0  0.62417  0.93880  0.62318  1.0000
  H   H121      1.0  0.62563  0.72226  0.62684  1.0000
  H   H122      1.0  0.61337  0.70315  0.45967  1.0000
  H   H123      1.0  0.62172  0.75449  0.36535  1.0000
  H   H124      1.0  0.40418  0.74274  0.38693  1.0000
  H   H125      1.0  0.39564  0.69451  0.49017  1.0000
  H   H126      1.0  0.39607  0.96128  0.50854  1.0000
  H   H127      1.0  0.61531  0.96059  0.45090  1.0000
  H   H128      1.0  0.62372  0.90846  0.35822  1.0000
  H   H129      1.0  0.40504  0.91113  0.41153  1.0000
  N   N34       1.0  0.70835  0.81015  0.38697  1.0000
  N   N35       1.0  0.37538  0.84584  0.39092  1.0000
  C   C198      1.0  0.50244  0.66411  0.65343  1.0000
  N   N36       1.0  0.51397  0.66319  0.56743  1.0000
  H   H130      1.0  0.49639  0.66318  0.51857  1.0000
  H   H131      1.0  0.53994  0.66292  0.55154  1.0000
  H   H132      1.0  0.44621  0.66481  0.61875  1.0000
  C   C199      1.0  0.70322  0.03302  0.00737  1.0000
  C   C200      1.0  0.72962  0.03426  0.07554  1.0000
  C   C201      1.0  0.74598  0.33445  0.10538  1.0000
  C   C202      1.0  0.72826  0.30070  0.08505  1.0000
  C   C203      1.0  0.70181  0.29976  0.01691  1.0000
  C   C204      1.0  0.91444  0.29702  0.02578  1.0000
  C   C205      1.0  0.89789  0.99740  0.05012  1.0000
  C   C206      1.0  0.91525  0.03097  0.02789  1.0000
  H   H133      1.0  0.74245  0.05904  0.08751  1.0000
  H   H134      1.0  0.74026  0.27613  0.10266  1.0000
  H   H135      1.0  0.90133  0.27240  0.03765  1.0000
  H   H136      1.0  0.90275  0.05575  0.04123  1.0000
  C   C207      1.0  0.68592  0.20098  0.34274  1.0000
  C   C208      1.0  0.66219  0.18293  0.28209  1.0000
  C   C209      1.0  0.99523  0.14381  0.27591  1.0000
  C   C210      1.0  0.01884  0.12364  0.33385  1.0000
  N   N37       1.0  0.97251  0.12689  0.21678  1.0000
  H   H137      1.0  0.95737  0.14120  0.17599  1.0000
  H   H138      1.0  0.97394  0.10042  0.20662  1.0000
  H   H139      1.0  0.64401  0.19814  0.24514  1.0000
  C   C211      1.0  0.78448  0.99990  0.09219  1.0000
  C   C212      1.0  0.79775  0.99836  0.00416  1.0000
  C   C213      1.0  0.85955  0.99777  0.06164  1.0000
  N   N38       1.0  0.84498  0.99928  0.14472  1.0000
  N   N39       1.0  0.80932  0.00027  0.15952  1.0000
  C   C214      1.0  0.01532  0.23771  0.37476  1.0000
  C   C215      1.0  0.97998  0.25366  0.38593  1.0000
  C   C216      1.0  0.97480  0.28369  0.44376  1.0000
  C   C217      1.0  0.00418  0.29786  0.49616  1.0000
  C   C218      1.0  0.70669  0.28419  0.47699  1.0000
  C   C219      1.0  0.71221  0.25493  0.41768  1.0000
  C   C220      1.0  0.99864  0.99731  0.55805  1.0000
  C   C221      1.0  0.00347  0.02850  0.49118  1.0000
  C   C222      1.0  0.70591  0.03927  0.46235  1.0000
  C   C223      1.0  0.71108  0.06731  0.39941  1.0000
  C   C224      1.0  0.01389  0.08667  0.36387  1.0000
  C   C225      1.0  0.97809  0.07388  0.38584  1.0000
  C   C226      1.0  0.97315  0.04447  0.44555  1.0000
  C   C227      1.0  0.96258  0.99725  0.60956  1.0000
  C   C228      1.0  0.69169  0.33224  0.63657  1.0000
  C   C229      1.0  0.94667  0.29712  0.64089  1.0000
  C   C230      1.0  0.94752  0.03068  0.64320  1.0000
  H   H140      1.0  0.69514  0.05751  0.64648  1.0000
  H   H141      1.0  0.69275  0.27445  0.66269  1.0000
  H   H142      1.0  0.95750  0.27213  0.62318  1.0000
  H   H143      1.0  0.95897  0.05560  0.62684  1.0000
  H   H144      1.0  0.94670  0.03649  0.45967  1.0000
  H   H145      1.0  0.95506  0.08782  0.36535  1.0000
  H   H146      1.0  0.73751  0.07608  0.38693  1.0000
  H   H147      1.0  0.72897  0.02785  0.49017  1.0000
  H   H148      1.0  0.72941  0.29462  0.50854  1.0000
  H   H149      1.0  0.94864  0.29392  0.45090  1.0000
  H   H150      1.0  0.95705  0.24179  0.35822  1.0000
  H   H151      1.0  0.73837  0.24447  0.41153  1.0000
  N   N40       1.0  0.04168  0.14349  0.38697  1.0000
  N   N41       1.0  0.70871  0.17917  0.39092  1.0000
  C   C231      1.0  0.83578  0.99745  0.65343  1.0000
  N   N42       1.0  0.84730  0.99652  0.56743  1.0000
  H   H152      1.0  0.82973  0.99651  0.51857  1.0000
  H   H153      1.0  0.87327  0.99625  0.55154  1.0000
  H   H154      1.0  0.77955  0.99814  0.61875  1.0000
  C   C232      1.0  0.70322  0.36635  0.00737  1.0000
  C   C233      1.0  0.72961  0.36759  0.07554  1.0000
  C   C234      1.0  0.74598  0.66779  0.10538  1.0000
  C   C235      1.0  0.72826  0.63404  0.08505  1.0000
  C   C236      1.0  0.70181  0.63310  0.01691  1.0000
  C   C237      1.0  0.91444  0.63035  0.02578  1.0000
  C   C238      1.0  0.89789  0.33074  0.05012  1.0000
  C   C239      1.0  0.91525  0.36431  0.02789  1.0000
  H   H155      1.0  0.74245  0.39237  0.08751  1.0000
  H   H156      1.0  0.74026  0.60946  0.10266  1.0000
  H   H157      1.0  0.90133  0.60573  0.03765  1.0000
  H   H158      1.0  0.90275  0.38909  0.04123  1.0000
  C   C240      1.0  0.68592  0.53431  0.34274  1.0000
  C   C241      1.0  0.66219  0.51626  0.28209  1.0000
  C   C242      1.0  0.99523  0.47714  0.27591  1.0000
  C   C243      1.0  0.01884  0.45697  0.33385  1.0000
  N   N43       1.0  0.97251  0.46023  0.21678  1.0000
  H   H159      1.0  0.95737  0.47453  0.17599  1.0000
  H   H160      1.0  0.97395  0.43375  0.20662  1.0000
  H   H161      1.0  0.64401  0.53148  0.24514  1.0000
  C   C244      1.0  0.78448  0.33324  0.09219  1.0000
  C   C245      1.0  0.79775  0.33169  0.00416  1.0000
  C   C246      1.0  0.85955  0.33110  0.06164  1.0000
  N   N44       1.0  0.84498  0.33261  0.14472  1.0000
  N   N45       1.0  0.80932  0.33360  0.15952  1.0000
  C   C247      1.0  0.01532  0.57105  0.37476  1.0000
  C   C248      1.0  0.97998  0.58699  0.38593  1.0000
  C   C249      1.0  0.97480  0.61703  0.44376  1.0000
  C   C250      1.0  0.00418  0.63119  0.49616  1.0000
  C   C251      1.0  0.70669  0.61752  0.47699  1.0000
  C   C252      1.0  0.71220  0.58826  0.41768  1.0000
  C   C253      1.0  0.99864  0.33065  0.55805  1.0000
  C   C254      1.0  0.00347  0.36183  0.49118  1.0000
  C   C255      1.0  0.70591  0.37260  0.46235  1.0000
  C   C256      1.0  0.71108  0.40064  0.39941  1.0000
  C   C257      1.0  0.01389  0.42000  0.36387  1.0000
  C   C258      1.0  0.97809  0.40721  0.38584  1.0000
  C   C259      1.0  0.97315  0.37780  0.44555  1.0000
  C   C260      1.0  0.96258  0.33058  0.60956  1.0000
  C   C261      1.0  0.69169  0.66557  0.63657  1.0000
  C   C262      1.0  0.94667  0.63046  0.64089  1.0000
  C   C263      1.0  0.94752  0.36402  0.64320  1.0000
  H   H162      1.0  0.69514  0.39084  0.64648  1.0000
  H   H163      1.0  0.69275  0.60779  0.66269  1.0000
  H   H164      1.0  0.95750  0.60546  0.62318  1.0000
  H   H165      1.0  0.95897  0.38893  0.62684  1.0000
  H   H166      1.0  0.94670  0.36982  0.45967  1.0000
  H   H167      1.0  0.95505  0.42115  0.36535  1.0000
  H   H168      1.0  0.73751  0.40941  0.38693  1.0000
  H   H169      1.0  0.72897  0.36118  0.49017  1.0000
  H   H170      1.0  0.72941  0.62795  0.50854  1.0000
  H   H171      1.0  0.94864  0.62725  0.45090  1.0000
  H   H172      1.0  0.95705  0.57513  0.35822  1.0000
  H   H173      1.0  0.73837  0.57780  0.41153  1.0000
  N   N46       1.0  0.04168  0.47682  0.38697  1.0000
  N   N47       1.0  0.70871  0.51250  0.39092  1.0000
  C   C264      1.0  0.83578  0.33078  0.65343  1.0000
  N   N48       1.0  0.84730  0.32986  0.56743  1.0000
  H   H174      1.0  0.82972  0.32984  0.51857  1.0000
  H   H175      1.0  0.87327  0.32959  0.55154  1.0000
  H   H176      1.0  0.77955  0.33148  0.61875  1.0000
  C   C265      1.0  0.70322  0.69968  0.00737  1.0000
  C   C266      1.0  0.72961  0.70092  0.07554  1.0000
  C   C267      1.0  0.74598  0.00112  0.10538  1.0000
  C   C268      1.0  0.72826  0.96737  0.08505  1.0000
  C   C269      1.0  0.70181  0.96643  0.01691  1.0000
  C   C270      1.0  0.91444  0.96369  0.02578  1.0000
  C   C271      1.0  0.89789  0.66407  0.05012  1.0000
  C   C272      1.0  0.91525  0.69764  0.02789  1.0000
  H   H177      1.0  0.74245  0.72571  0.08751  1.0000
  H   H178      1.0  0.74026  0.94279  0.10266  1.0000
  H   H179      1.0  0.90133  0.93906  0.03765  1.0000
  H   H180      1.0  0.90275  0.72242  0.04123  1.0000
  C   C273      1.0  0.68592  0.86765  0.34274  1.0000
  C   C274      1.0  0.66219  0.84960  0.28209  1.0000
  C   C275      1.0  0.99523  0.81047  0.27591  1.0000
  C   C276      1.0  0.01884  0.79030  0.33385  1.0000
  N   N49       1.0  0.97251  0.79356  0.21678  1.0000
  H   H181      1.0  0.95737  0.80787  0.17599  1.0000
  H   H182      1.0  0.97395  0.76708  0.20662  1.0000
  H   H183      1.0  0.64401  0.86481  0.24514  1.0000
  C   C277      1.0  0.78448  0.66657  0.09219  1.0000
  C   C278      1.0  0.79775  0.66503  0.00416  1.0000
  C   C279      1.0  0.85955  0.66444  0.06164  1.0000
  N   N50       1.0  0.84498  0.66594  0.14472  1.0000
  N   N51       1.0  0.80932  0.66693  0.15952  1.0000
  C   C280      1.0  0.01532  0.90438  0.37476  1.0000
  C   C281      1.0  0.97998  0.92032  0.38593  1.0000
  C   C282      1.0  0.97480  0.95036  0.44376  1.0000
  C   C283      1.0  0.00418  0.96453  0.49616  1.0000
  C   C284      1.0  0.70669  0.95086  0.47699  1.0000
  C   C285      1.0  0.71220  0.92159  0.41768  1.0000
  C   C286      1.0  0.99864  0.66398  0.55805  1.0000
  C   C287      1.0  0.00347  0.69516  0.49118  1.0000
  C   C288      1.0  0.70591  0.70594  0.46235  1.0000
  C   C289      1.0  0.71108  0.73398  0.39941  1.0000
  C   C290      1.0  0.01389  0.75334  0.36387  1.0000
  C   C291      1.0  0.97809  0.74054  0.38584  1.0000
  C   C292      1.0  0.97315  0.71113  0.44555  1.0000
  C   C293      1.0  0.96258  0.66391  0.60956  1.0000
  C   C294      1.0  0.69169  0.99890  0.63657  1.0000
  C   C295      1.0  0.94667  0.96379  0.64089  1.0000
  C   C296      1.0  0.94752  0.69735  0.64320  1.0000
  H   H184      1.0  0.69514  0.72417  0.64648  1.0000
  H   H185      1.0  0.69275  0.94112  0.66269  1.0000
  H   H186      1.0  0.95750  0.93880  0.62318  1.0000
  H   H187      1.0  0.95897  0.72226  0.62684  1.0000
  H   H188      1.0  0.94670  0.70315  0.45967  1.0000
  H   H189      1.0  0.95505  0.75449  0.36535  1.0000
  H   H190      1.0  0.73751  0.74274  0.38693  1.0000
  H   H191      1.0  0.72897  0.69451  0.49017  1.0000
  H   H192      1.0  0.72940  0.96128  0.50854  1.0000
  H   H193      1.0  0.94864  0.96059  0.45090  1.0000
  H   H194      1.0  0.95705  0.90846  0.35822  1.0000
  H   H195      1.0  0.73837  0.91113  0.41153  1.0000
  N   N52       1.0  0.04168  0.81015  0.38697  1.0000
  N   N53       1.0  0.70871  0.84584  0.39092  1.0000
  C   C297      1.0  0.83578  0.66411  0.65343  1.0000
  N   N54       1.0  0.84730  0.66319  0.56743  1.0000
  H   H196      1.0  0.82972  0.66318  0.51857  1.0000
  H   H197      1.0  0.87327  0.66292  0.55154  1.0000
  H   H198      1.0  0.77955  0.66481  0.61875  1.0000
