data_image0
_chemical_formula_structural       CNCOHCNCOHCNCOHCNCOHCNCOHCNCOHC2NC2H3CH3CH3C2NC2H3CH3CH3C2NC2H3CH3CH3C2NC2H3CH3CH3C2NC2H3CH3CH3C2NC2H3CH3CH3C2NC2H3CH3CH3C2NC2H3CH3CH3C2NC2H3CH3CH3C2NC2H3CH3CH3C2NC2H3CH3CH3C2NC2H3CH3CH3NC18H12NC18H12NC18H12NC18H12NC18H12NC18H12NC18H12NC18H12NC18H12NC18H12NC18H12NC18H12C2NC2H3CH3CH3C2NC2H3CH3CH3C2NC2H3CH3CH3C2NC2H3CH3CH3C2NC2H3CH3CH3C2NC2H3CH3CH3CNCOHCNCOHCNCOHCNCOHCNCOHCNCOHCNCOHCNCOHCNCOHCNCOHCNCOHCNCOH
_chemical_formula_sum              "C360 N48 O18 H324"
_cell_length_a       64.0672
_cell_length_b       64.0672
_cell_length_c       14.744
_cell_angle_alpha    90
_cell_angle_beta     90
_cell_angle_gamma    120

_space_group_name_H-M_alt    "P 1"
_space_group_IT_number       1

loop_
  _space_group_symop_operation_xyz
  'x, y, z'

loop_
  _atom_site_type_symbol
  _atom_site_label
  _atom_site_symmetry_multiplicity
  _atom_site_fract_x
  _atom_site_fract_y
  _atom_site_fract_z
  _atom_site_occupancy
  C   C1        1.0  0.20705  0.37876  0.28608  1.0000
  N   N1        1.0  0.21949  0.40336  0.28047  1.0000
  C   C2        1.0  0.22050  0.41783  0.35038  1.0000
  O   O1        1.0  0.20769  0.36631  0.21269  1.0000
  H   H1        1.0  0.22839  0.41064  0.22497  1.0000
  C   C3        1.0  0.63022  0.81991  0.28614  1.0000
  N   N2        1.0  0.60561  0.80774  0.28055  1.0000
  C   C4        1.0  0.59114  0.79429  0.35045  1.0000
  O   O2        1.0  0.64267  0.83297  0.21273  1.0000
  H   H2        1.0  0.59833  0.80934  0.22501  1.0000
  C   C5        1.0  0.18910  0.80196  0.28606  1.0000
  N   N3        1.0  0.20126  0.78951  0.28050  1.0000
  C   C6        1.0  0.21469  0.78848  0.35044  1.0000
  O   O3        1.0  0.17605  0.80136  0.21263  1.0000
  H   H3        1.0  0.19966  0.78064  0.22495  1.0000
  C   C7        1.0  0.81052  0.62163  0.28612  1.0000
  N   N4        1.0  0.79807  0.59702  0.28053  1.0000
  C   C8        1.0  0.79705  0.58255  0.35045  1.0000
  O   O4        1.0  0.80991  0.63409  0.21272  1.0000
  H   H4        1.0  0.78919  0.58975  0.22499  1.0000
  C   C9        1.0  0.38735  0.18048  0.28614  1.0000
  N   N5        1.0  0.41196  0.19263  0.28057  1.0000
  C   C10       1.0  0.42643  0.20610  0.35043  1.0000
  O   O5        1.0  0.37490  0.16740  0.21276  1.0000
  H   H5        1.0  0.41923  0.19101  0.22505  1.0000
  C   C11       1.0  0.82846  0.19845  0.28604  1.0000
  N   N6        1.0  0.81630  0.21090  0.28047  1.0000
  C   C12       1.0  0.80285  0.21191  0.35039  1.0000
  O   O6        1.0  0.84152  0.19907  0.21263  1.0000
  H   H6        1.0  0.81790  0.21978  0.22493  1.0000
  C   C13       1.0  0.19649  0.19596  0.25400  1.0000
  C   C14       1.0  0.19400  0.20859  0.32994  1.0000
  N   N7        1.0  0.20922  0.18430  0.26880  1.0000
  C   C15       1.0  0.18589  0.19326  0.15907  1.0000
  C   C16       1.0  0.19017  0.17550  0.09813  1.0000
  H   H7        1.0  0.20942  0.18222  0.08867  1.0000
  H   H8        1.0  0.18216  0.17328  0.03081  1.0000
  H   H9        1.0  0.18216  0.15765  0.12916  1.0000
  C   C17       1.0  0.19789  0.21791  0.10742  1.0000
  H   H10       1.0  0.21747  0.22742  0.11585  1.0000
  H   H11       1.0  0.19116  0.22949  0.13087  1.0000
  H   H12       1.0  0.19400  0.21540  0.03479  1.0000
  C   C18       1.0  0.15793  0.18244  0.16342  1.0000
  H   H13       1.0  0.14949  0.16581  0.20314  1.0000
  H   H14       1.0  0.14999  0.17830  0.09558  1.0000
  H   H15       1.0  0.15310  0.19493  0.19374  1.0000
  C   C19       1.0  0.81303  0.99214  0.25399  1.0000
  C   C20       1.0  0.80039  0.97702  0.32990  1.0000
  N   N8        1.0  0.82470  0.01654  0.26880  1.0000
  C   C21       1.0  0.81578  0.98425  0.15912  1.0000
  C   C22       1.0  0.83354  0.00629  0.09819  1.0000
  H   H16       1.0  0.82680  0.01880  0.08865  1.0000
  H   H17       1.0  0.83578  0.00050  0.03091  1.0000
  H   H18       1.0  0.85138  0.01615  0.12929  1.0000
  C   C23       1.0  0.79114  0.97156  0.10735  1.0000
  H   H19       1.0  0.78160  0.98160  0.11571  1.0000
  H   H20       1.0  0.77958  0.95325  0.13074  1.0000
  H   H21       1.0  0.79368  0.97020  0.03472  1.0000
  C   C24       1.0  0.82663  0.96713  0.16361  1.0000
  H   H22       1.0  0.84325  0.97536  0.20338  1.0000
  H   H23       1.0  0.83079  0.96333  0.09583  1.0000
  H   H24       1.0  0.81415  0.94982  0.19396  1.0000
  C   C25       1.0  0.01684  0.81253  0.25399  1.0000
  C   C26       1.0  0.03196  0.81500  0.32990  1.0000
  N   N9        1.0  0.99244  0.79979  0.26878  1.0000
  C   C27       1.0  0.02473  0.82318  0.15912  1.0000
  C   C28       1.0  0.00270  0.81893  0.09824  1.0000
  H   H25       1.0  0.99016  0.79969  0.08868  1.0000
  H   H26       1.0  0.00849  0.82697  0.03097  1.0000
  H   H27       1.0  0.99286  0.82693  0.12939  1.0000
  C   C29       1.0  0.03738  0.81118  0.10730  1.0000
  H   H28       1.0  0.02731  0.79161  0.11564  1.0000
  H   H29       1.0  0.05568  0.81790  0.13068  1.0000
  H   H30       1.0  0.03875  0.81510  0.03469  1.0000
  C   C30       1.0  0.04189  0.85113  0.16361  1.0000
  H   H31       1.0  0.03370  0.85956  0.20345  1.0000
  H   H32       1.0  0.04569  0.85910  0.09583  1.0000
  H   H33       1.0  0.05921  0.85594  0.19389  1.0000
  C   C31       1.0  0.82110  0.80446  0.25399  1.0000
  C   C32       1.0  0.82358  0.79182  0.32990  1.0000
  N   N10       1.0  0.80837  0.81613  0.26879  1.0000
  C   C33       1.0  0.83177  0.80724  0.15914  1.0000
  C   C34       1.0  0.82749  0.82500  0.09823  1.0000
  H   H34       1.0  0.80823  0.81825  0.08863  1.0000
  H   H35       1.0  0.83554  0.82726  0.03097  1.0000
  H   H36       1.0  0.83545  0.84284  0.12937  1.0000
  C   C35       1.0  0.81985  0.78261  0.10730  1.0000
  H   H37       1.0  0.80027  0.77305  0.11564  1.0000
  H   H38       1.0  0.82663  0.77107  0.13067  1.0000
  H   H39       1.0  0.82376  0.78517  0.03469  1.0000
  C   C36       1.0  0.85974  0.81811  0.16374  1.0000
  H   H40       1.0  0.86811  0.83472  0.20354  1.0000
  H   H41       1.0  0.86772  0.82228  0.09598  1.0000
  H   H42       1.0  0.86458  0.80563  0.19412  1.0000
  C   C37       1.0  0.20456  0.00826  0.25391  1.0000
  C   C38       1.0  0.21716  0.02338  0.32987  1.0000
  N   N11       1.0  0.19288  0.98386  0.26871  1.0000
  C   C39       1.0  0.20186  0.01615  0.15898  1.0000
  C   C40       1.0  0.18415  0.99412  0.09794  1.0000
  H   H43       1.0  0.19090  0.98161  0.08852  1.0000
  H   H44       1.0  0.18194  0.99991  0.03062  1.0000
  H   H45       1.0  0.16628  0.98424  0.12889  1.0000
  C   C41       1.0  0.22652  0.02886  0.10741  1.0000
  H   H46       1.0  0.23607  0.01884  0.11588  1.0000
  H   H47       1.0  0.23806  0.04718  0.13088  1.0000
  H   H48       1.0  0.22402  0.03024  0.03476  1.0000
  C   C42       1.0  0.19098  0.03325  0.16331  1.0000
  H   H49       1.0  0.17434  0.02501  0.20295  1.0000
  H   H50       1.0  0.18686  0.03706  0.09548  1.0000
  H   H51       1.0  0.20344  0.05057  0.19375  1.0000
  C   C43       1.0  0.00071  0.18789  0.25408  1.0000
  C   C44       1.0  0.98559  0.18544  0.32999  1.0000
  N   N12       1.0  0.02511  0.20062  0.26888  1.0000
  C   C45       1.0  0.99281  0.17728  0.15918  1.0000
  C   C46       1.0  0.01484  0.18150  0.09831  1.0000
  H   H52       1.0  0.02741  0.20075  0.08881  1.0000
  H   H53       1.0  0.00905  0.17349  0.03101  1.0000
  H   H54       1.0  0.02465  0.17347  0.12944  1.0000
  C   C47       1.0  0.98021  0.18932  0.10741  1.0000
  H   H55       1.0  0.99032  0.20890  0.11576  1.0000
  H   H56       1.0  0.96191  0.18264  0.13081  1.0000
  H   H57       1.0  0.97883  0.18541  0.03479  1.0000
  C   C48       1.0  0.97562  0.14933  0.16356  1.0000
  H   H58       1.0  0.98378  0.14087  0.20340  1.0000
  H   H59       1.0  0.97183  0.14137  0.09575  1.0000
  H   H60       1.0  0.95830  0.14454  0.19377  1.0000
  C   C49       1.0  0.23401  0.60302  0.27788  1.0000
  C   C50       1.0  0.24780  0.59643  0.33538  1.0000
  N   N13       1.0  0.23575  0.62479  0.29562  1.0000
  C   C51       1.0  0.21714  0.58836  0.20078  1.0000
  C   C52       1.0  0.20355  0.60097  0.15947  1.0000
  H   H61       1.0  0.19308  0.60383  0.21146  1.0000
  H   H62       1.0  0.19106  0.59012  0.10574  1.0000
  H   H63       1.0  0.21632  0.61847  0.13020  1.0000
  C   C53       1.0  0.19718  0.56317  0.23616  1.0000
  H   H64       1.0  0.18765  0.56524  0.29383  1.0000
  H   H65       1.0  0.20466  0.55199  0.25751  1.0000
  H   H66       1.0  0.18397  0.55320  0.18315  1.0000
  C   C54       1.0  0.23119  0.58508  0.12021  1.0000
  H   H67       1.0  0.24773  0.60197  0.10551  1.0000
  H   H68       1.0  0.22036  0.57931  0.05830  1.0000
  H   H69       1.0  0.23579  0.57123  0.13454  1.0000
  C   C55       1.0  0.40594  0.62257  0.27786  1.0000
  C   C56       1.0  0.41255  0.64296  0.33542  1.0000
  N   N14       1.0  0.38417  0.60256  0.29560  1.0000
  C   C57       1.0  0.42057  0.62038  0.20063  1.0000
  C   C58       1.0  0.40793  0.59418  0.15924  1.0000
  H   H70       1.0  0.40507  0.58083  0.21116  1.0000
  H   H71       1.0  0.41877  0.59254  0.10543  1.0000
  H   H72       1.0  0.39043  0.58947  0.13005  1.0000
  C   C59       1.0  0.44577  0.62557  0.23587  1.0000
  H   H73       1.0  0.44371  0.61396  0.29348  1.0000
  H   H74       1.0  0.45696  0.64423  0.25726  1.0000
  H   H75       1.0  0.45571  0.62233  0.18276  1.0000
  C   C60       1.0  0.42385  0.63773  0.12016  1.0000
  H   H76       1.0  0.40696  0.63739  0.10558  1.0000
  H   H77       1.0  0.42959  0.63267  0.05817  1.0000
  H   H78       1.0  0.43770  0.65616  0.13450  1.0000
  C   C61       1.0  0.38640  0.77499  0.27781  1.0000
  C   C62       1.0  0.36601  0.76122  0.33536  1.0000
  N   N15       1.0  0.40640  0.77323  0.29552  1.0000
  C   C63       1.0  0.38860  0.79184  0.20064  1.0000
  C   C64       1.0  0.41480  0.80541  0.15929  1.0000
  H   H79       1.0  0.42814  0.81589  0.21125  1.0000
  H   H80       1.0  0.41644  0.81789  0.10552  1.0000
  H   H81       1.0  0.41951  0.79263  0.13007  1.0000
  C   C65       1.0  0.38339  0.81183  0.23593  1.0000
  H   H82       1.0  0.39499  0.82137  0.29357  1.0000
  H   H83       1.0  0.36473  0.80436  0.25730  1.0000
  H   H84       1.0  0.38664  0.82502  0.18286  1.0000
  C   C66       1.0  0.37126  0.77778  0.12013  1.0000
  H   H85       1.0  0.37160  0.76123  0.10550  1.0000
  H   H86       1.0  0.37631  0.78859  0.05818  1.0000
  H   H87       1.0  0.35282  0.77319  0.13447  1.0000
  C   C67       1.0  0.78358  0.39737  0.27784  1.0000
  C   C68       1.0  0.76980  0.40397  0.33536  1.0000
  N   N16       1.0  0.78184  0.37560  0.29561  1.0000
  C   C69       1.0  0.80044  0.41202  0.20070  1.0000
  C   C70       1.0  0.81400  0.39938  0.15933  1.0000
  H   H88       1.0  0.82448  0.39651  0.21128  1.0000
  H   H89       1.0  0.82649  0.41023  0.10557  1.0000
  H   H90       1.0  0.80122  0.38189  0.13009  1.0000
  C   C71       1.0  0.82042  0.43721  0.23603  1.0000
  H   H91       1.0  0.82996  0.43513  0.29366  1.0000
  H   H92       1.0  0.81295  0.44839  0.25745  1.0000
  H   H93       1.0  0.83362  0.44716  0.18298  1.0000
  C   C72       1.0  0.78639  0.41531  0.12018  1.0000
  H   H94       1.0  0.76983  0.39842  0.10553  1.0000
  H   H95       1.0  0.79720  0.42106  0.05823  1.0000
  H   H96       1.0  0.78181  0.42917  0.13452  1.0000
  C   C73       1.0  0.61157  0.37780  0.27788  1.0000
  C   C74       1.0  0.60499  0.35740  0.33535  1.0000
  N   N17       1.0  0.63334  0.39781  0.29560  1.0000
  C   C75       1.0  0.59691  0.37999  0.20075  1.0000
  C   C76       1.0  0.60952  0.40620  0.15944  1.0000
  H   H97       1.0  0.61238  0.41953  0.21143  1.0000
  H   H98       1.0  0.59867  0.40783  0.10570  1.0000
  H   H99       1.0  0.62703  0.41093  0.13018  1.0000
  C   C77       1.0  0.57172  0.37476  0.23610  1.0000
  H   H100      1.0  0.57378  0.38635  0.29377  1.0000
  H   H101      1.0  0.56054  0.35610  0.25746  1.0000
  H   H102      1.0  0.56175  0.37800  0.18308  1.0000
  C   C78       1.0  0.59364  0.36266  0.12019  1.0000
  H   H103      1.0  0.61054  0.36302  0.10552  1.0000
  H   H104      1.0  0.58788  0.36772  0.05827  1.0000
  H   H105      1.0  0.57980  0.34422  0.13452  1.0000
  C   C79       1.0  0.63118  0.22540  0.27781  1.0000
  C   C80       1.0  0.65156  0.23918  0.33538  1.0000
  N   N18       1.0  0.61115  0.22714  0.29556  1.0000
  C   C81       1.0  0.62899  0.20857  0.20062  1.0000
  C   C82       1.0  0.60279  0.19499  0.15923  1.0000
  H   H106      1.0  0.58945  0.18450  0.21117  1.0000
  H   H107      1.0  0.60116  0.18251  0.10545  1.0000
  H   H108      1.0  0.59807  0.20777  0.13002  1.0000
  C   C83       1.0  0.63421  0.18859  0.23591  1.0000
  H   H109      1.0  0.62260  0.17904  0.29353  1.0000
  H   H110      1.0  0.65287  0.19607  0.25732  1.0000
  H   H111      1.0  0.63098  0.17540  0.18283  1.0000
  C   C84       1.0  0.64634  0.22264  0.12012  1.0000
  H   H112      1.0  0.64600  0.23919  0.10552  1.0000
  H   H113      1.0  0.64128  0.21184  0.05816  1.0000
  H   H114      1.0  0.66477  0.22722  0.13447  1.0000
  N   N19       1.0  0.14231  0.26175  0.34752  1.0000
  C   C85       1.0  0.11622  0.24911  0.34797  1.0000
  C   C86       1.0  0.15506  0.28789  0.35358  1.0000
  C   C87       1.0  0.15496  0.24820  0.34019  1.0000
  C   C88       1.0  0.14627  0.22550  0.38310  1.0000
  C   C89       1.0  0.15864  0.21239  0.37746  1.0000
  C   C90       1.0  0.18086  0.22156  0.33068  1.0000
  C   C91       1.0  0.19051  0.24502  0.29397  1.0000
  C   C92       1.0  0.17746  0.25750  0.29518  1.0000
  C   C93       1.0  0.10265  0.23669  0.27065  1.0000
  C   C94       1.0  0.07712  0.22452  0.27091  1.0000
  C   C95       1.0  0.06353  0.22397  0.34824  1.0000
  C   C96       1.0  0.07752  0.23660  0.42542  1.0000
  C   C97       1.0  0.10305  0.24878  0.42538  1.0000
  C   C98       1.0  0.14850  0.30202  0.29956  1.0000
  C   C99       1.0  0.16077  0.32748  0.30576  1.0000
  C   C100      1.0  0.18091  0.34030  0.36379  1.0000
  C   C101      1.0  0.18863  0.32627  0.41218  1.0000
  C   C102      1.0  0.17537  0.30075  0.41066  1.0000
  H   H115      1.0  0.06849  0.21590  0.21255  1.0000
  H   H116      1.0  0.11144  0.23653  0.21297  1.0000
  H   H117      1.0  0.11216  0.25759  0.48280  1.0000
  H   H118      1.0  0.06936  0.23734  0.48376  1.0000
  H   H119      1.0  0.13046  0.21809  0.41866  1.0000
  H   H120      1.0  0.15130  0.19594  0.40866  1.0000
  H   H121      1.0  0.13424  0.29371  0.25595  1.0000
  H   H122      1.0  0.15494  0.33674  0.26649  1.0000
  H   H123      1.0  0.20406  0.33463  0.45002  1.0000
  H   H124      1.0  0.18136  0.29147  0.44886  1.0000
  H   H125      1.0  0.18502  0.27408  0.26515  1.0000
  H   H126      1.0  0.20719  0.25317  0.26445  1.0000
  N   N20       1.0  0.74722  0.87218  0.34751  1.0000
  C   C103      1.0  0.75986  0.85872  0.34793  1.0000
  C   C104      1.0  0.72108  0.85878  0.35359  1.0000
  C   C105      1.0  0.76078  0.89837  0.34017  1.0000
  C   C106      1.0  0.78345  0.91238  0.38325  1.0000
  C   C107      1.0  0.79656  0.93786  0.37760  1.0000
  C   C108      1.0  0.78743  0.95091  0.33064  1.0000
  C   C109      1.0  0.76398  0.93710  0.29379  1.0000
  C   C110      1.0  0.75150  0.91157  0.29497  1.0000
  C   C111      1.0  0.77228  0.85757  0.27060  1.0000
  C   C112      1.0  0.78444  0.84421  0.27084  1.0000
  C   C113      1.0  0.78500  0.83118  0.34816  1.0000
  C   C114      1.0  0.77238  0.83254  0.42536  1.0000
  C   C115      1.0  0.76020  0.84589  0.42534  1.0000
  C   C116      1.0  0.70695  0.83808  0.29962  1.0000
  C   C117      1.0  0.68149  0.82489  0.30587  1.0000
  C   C118      1.0  0.66867  0.83222  0.36391  1.0000
  C   C119      1.0  0.68271  0.85399  0.41217  1.0000
  C   C120      1.0  0.70823  0.86626  0.41061  1.0000
  H   H127      1.0  0.79306  0.84420  0.21247  1.0000
  H   H128      1.0  0.77243  0.86652  0.21293  1.0000
  H   H129      1.0  0.75140  0.84619  0.48277  1.0000
  H   H130      1.0  0.77164  0.82364  0.48369  1.0000
  H   H131      1.0  0.79083  0.90397  0.41896  1.0000
  H   H132      1.0  0.81299  0.94696  0.40894  1.0000
  H   H133      1.0  0.71526  0.83212  0.25606  1.0000
  H   H134      1.0  0.67223  0.80980  0.26666  1.0000
  H   H135      1.0  0.67435  0.86107  0.44999  1.0000
  H   H136      1.0  0.71751  0.88153  0.44877  1.0000
  H   H137      1.0  0.73493  0.90255  0.26489  1.0000
  H   H138      1.0  0.75585  0.94564  0.26417  1.0000
  N   N21       1.0  0.13680  0.86666  0.34742  1.0000
  C   C121      1.0  0.15025  0.89275  0.34786  1.0000
  C   C122      1.0  0.15019  0.85391  0.35348  1.0000
  C   C123      1.0  0.11060  0.85402  0.34018  1.0000
  C   C124      1.0  0.09660  0.86269  0.38323  1.0000
  C   C125      1.0  0.07112  0.85033  0.37760  1.0000
  C   C126      1.0  0.05807  0.82814  0.33068  1.0000
  C   C127      1.0  0.07187  0.81851  0.29374  1.0000
  C   C128      1.0  0.09740  0.83156  0.29489  1.0000
  C   C129      1.0  0.15138  0.90632  0.27054  1.0000
  C   C130      1.0  0.16474  0.93185  0.27079  1.0000
  C   C131      1.0  0.17779  0.94544  0.34812  1.0000
  C   C132      1.0  0.17644  0.93146  0.42528  1.0000
  C   C133      1.0  0.16309  0.90592  0.42525  1.0000
  C   C134      1.0  0.17091  0.86050  0.29958  1.0000
  C   C135      1.0  0.18411  0.84824  0.30585  1.0000
  C   C136      1.0  0.17677  0.82809  0.36384  1.0000
  C   C137      1.0  0.15500  0.82034  0.41203  1.0000
  C   C138      1.0  0.14272  0.83358  0.41048  1.0000
  H   H139      1.0  0.16475  0.94048  0.21245  1.0000
  H   H140      1.0  0.14243  0.89753  0.21289  1.0000
  H   H141      1.0  0.16280  0.89682  0.48266  1.0000
  H   H142      1.0  0.18535  0.93962  0.48360  1.0000
  H   H143      1.0  0.10501  0.87848  0.41892  1.0000
  H   H144      1.0  0.06202  0.85766  0.40893  1.0000
  H   H145      1.0  0.17687  0.87478  0.25605  1.0000
  H   H146      1.0  0.19921  0.85409  0.26666  1.0000
  H   H147      1.0  0.14792  0.80490  0.44984  1.0000
  H   H148      1.0  0.12744  0.82758  0.44861  1.0000
  H   H149      1.0  0.10642  0.82400  0.26478  1.0000
  H   H150      1.0  0.06333  0.80184  0.26409  1.0000
  N   N22       1.0  0.87524  0.73864  0.34741  1.0000
  C   C139      1.0  0.90133  0.75128  0.34786  1.0000
  C   C140      1.0  0.86249  0.71249  0.35351  1.0000
  C   C141      1.0  0.86259  0.75219  0.34021  1.0000
  C   C142      1.0  0.87126  0.77485  0.38332  1.0000
  C   C143      1.0  0.85889  0.78797  0.37768  1.0000
  C   C144      1.0  0.83673  0.77885  0.33063  1.0000
  C   C145      1.0  0.82710  0.75541  0.29371  1.0000
  C   C146      1.0  0.84015  0.74293  0.29485  1.0000
  C   C147      1.0  0.91490  0.76371  0.27056  1.0000
  C   C148      1.0  0.94043  0.77588  0.27081  1.0000
  C   C149      1.0  0.95402  0.77643  0.34813  1.0000
  C   C150      1.0  0.94003  0.76379  0.42529  1.0000
  C   C151      1.0  0.91450  0.75160  0.42526  1.0000
  C   C152      1.0  0.86908  0.69836  0.29967  1.0000
  C   C153      1.0  0.85682  0.67290  0.30592  1.0000
  C   C154      1.0  0.83667  0.66008  0.36390  1.0000
  C   C155      1.0  0.82891  0.67412  0.41205  1.0000
  C   C156      1.0  0.84216  0.69964  0.41053  1.0000
  H   H151      1.0  0.94906  0.78451  0.21247  1.0000
  H   H152      1.0  0.90611  0.76388  0.21289  1.0000
  H   H153      1.0  0.90539  0.74279  0.48266  1.0000
  H   H154      1.0  0.94819  0.76304  0.48362  1.0000
  H   H155      1.0  0.88704  0.78222  0.41907  1.0000
  H   H156      1.0  0.86622  0.80440  0.40904  1.0000
  H   H157      1.0  0.88335  0.70667  0.25609  1.0000
  H   H158      1.0  0.86266  0.66364  0.26675  1.0000
  H   H159      1.0  0.81346  0.66576  0.44982  1.0000
  H   H160      1.0  0.83614  0.70891  0.44856  1.0000
  H   H161      1.0  0.83259  0.72637  0.26470  1.0000
  H   H162      1.0  0.81044  0.74729  0.26397  1.0000
  N   N23       1.0  0.27035  0.12822  0.34747  1.0000
  C   C157      1.0  0.25771  0.14168  0.34792  1.0000
  C   C158      1.0  0.29649  0.14162  0.35353  1.0000
  C   C159      1.0  0.25679  0.10203  0.34019  1.0000
  C   C160      1.0  0.23408  0.08803  0.38298  1.0000
  C   C161      1.0  0.22096  0.06254  0.37735  1.0000
  C   C162      1.0  0.23013  0.04949  0.33060  1.0000
  C   C163      1.0  0.25361  0.06329  0.29401  1.0000
  C   C164      1.0  0.26609  0.08882  0.29519  1.0000
  C   C165      1.0  0.24528  0.14282  0.27060  1.0000
  C   C166      1.0  0.23312  0.15618  0.27086  1.0000
  C   C167      1.0  0.23256  0.16922  0.34819  1.0000
  C   C168      1.0  0.24519  0.16786  0.42537  1.0000
  C   C169      1.0  0.25738  0.15451  0.42533  1.0000
  C   C170      1.0  0.31062  0.16231  0.29950  1.0000
  C   C171      1.0  0.33608  0.17550  0.30573  1.0000
  C   C172      1.0  0.34890  0.16820  0.36387  1.0000
  C   C173      1.0  0.33487  0.14644  0.41219  1.0000
  C   C174      1.0  0.30934  0.13418  0.41072  1.0000
  H   H163      1.0  0.22450  0.15619  0.21250  1.0000
  H   H164      1.0  0.24513  0.13387  0.21293  1.0000
  H   H165      1.0  0.26619  0.15422  0.48275  1.0000
  H   H166      1.0  0.24593  0.17676  0.48369  1.0000
  H   H167      1.0  0.22667  0.09643  0.41851  1.0000
  H   H168      1.0  0.20450  0.05344  0.40847  1.0000
  H   H169      1.0  0.30231  0.16824  0.25583  1.0000
  H   H170      1.0  0.34534  0.19058  0.26645  1.0000
  H   H171      1.0  0.34322  0.13938  0.45008  1.0000
  H   H172      1.0  0.30007  0.11890  0.44883  1.0000
  H   H173      1.0  0.28269  0.09783  0.26528  1.0000
  H   H174      1.0  0.26175  0.05475  0.26452  1.0000
  N   N24       1.0  0.88075  0.13373  0.34748  1.0000
  C   C175      1.0  0.86730  0.10764  0.34792  1.0000
  C   C176      1.0  0.86735  0.14648  0.35355  1.0000
  C   C177      1.0  0.90695  0.14639  0.34025  1.0000
  C   C178      1.0  0.92095  0.13770  0.38321  1.0000
  C   C179      1.0  0.94644  0.15008  0.37760  1.0000
  C   C180      1.0  0.95948  0.17229  0.33079  1.0000
  C   C181      1.0  0.94567  0.18192  0.29389  1.0000
  C   C182      1.0  0.92014  0.16886  0.29503  1.0000
  C   C183      1.0  0.86617  0.09408  0.27062  1.0000
  C   C184      1.0  0.85281  0.06855  0.27086  1.0000
  C   C185      1.0  0.83976  0.05496  0.34818  1.0000
  C   C186      1.0  0.84111  0.06894  0.42535  1.0000
  C   C187      1.0  0.85446  0.09447  0.42533  1.0000
  C   C188      1.0  0.84665  0.13990  0.29959  1.0000
  C   C189      1.0  0.83345  0.15216  0.30579  1.0000
  C   C190      1.0  0.84078  0.17231  0.36377  1.0000
  C   C191      1.0  0.86254  0.18005  0.41210  1.0000
  C   C192      1.0  0.87480  0.16679  0.41064  1.0000
  H   H175      1.0  0.85280  0.05992  0.21251  1.0000
  H   H176      1.0  0.87512  0.10287  0.21295  1.0000
  H   H177      1.0  0.85475  0.10358  0.48274  1.0000
  H   H178      1.0  0.83220  0.06078  0.48367  1.0000
  H   H179      1.0  0.91255  0.12191  0.41882  1.0000
  H   H180      1.0  0.95554  0.14274  0.40884  1.0000
  H   H181      1.0  0.84070  0.12563  0.25601  1.0000
  H   H182      1.0  0.81836  0.14632  0.26658  1.0000
  H   H183      1.0  0.86962  0.19549  0.44988  1.0000
  H   H184      1.0  0.89009  0.17281  0.44870  1.0000
  H   H185      1.0  0.91112  0.17642  0.26501  1.0000
  H   H186      1.0  0.95421  0.19860  0.26434  1.0000
  N   N25       1.0  0.27174  0.52233  0.34702  1.0000
  C   C193      1.0  0.29716  0.53605  0.36330  1.0000
  C   C194      1.0  0.25879  0.49645  0.34745  1.0000
  C   C195      1.0  0.26070  0.53676  0.33125  1.0000
  C   C196      1.0  0.26951  0.55432  0.26148  1.0000
  C   C197      1.0  0.26503  0.57372  0.26242  1.0000
  C   C198      1.0  0.24947  0.57500  0.32724  1.0000
  C   C199      1.0  0.23972  0.55681  0.39468  1.0000
  C   C200      1.0  0.24538  0.53813  0.39702  1.0000
  C   C201      1.0  0.31324  0.54077  0.29052  1.0000
  C   C202      1.0  0.33677  0.56090  0.29222  1.0000
  C   C203      1.0  0.34530  0.57724  0.36648  1.0000
  C   C204      1.0  0.32963  0.57099  0.44236  1.0000
  C   C205      1.0  0.30608  0.55090  0.44084  1.0000
  C   C206      1.0  0.25088  0.48302  0.26622  1.0000
  C   C207      1.0  0.23860  0.45749  0.26682  1.0000
  C   C208      1.0  0.23331  0.44403  0.34862  1.0000
  C   C209      1.0  0.24103  0.45780  0.42986  1.0000
  C   C210      1.0  0.25364  0.48332  0.42931  1.0000
  H   H187      1.0  0.34693  0.56451  0.23469  1.0000
  H   H188      1.0  0.30702  0.53114  0.23167  1.0000
  H   H189      1.0  0.29460  0.54863  0.49302  1.0000
  H   H190      1.0  0.33463  0.58165  0.49877  1.0000
  H   H191      1.0  0.28157  0.55466  0.21527  1.0000
  H   H192      1.0  0.27391  0.58741  0.21668  1.0000
  H   H193      1.0  0.25424  0.49189  0.20560  1.0000
  H   H194      1.0  0.23307  0.44881  0.20591  1.0000
  H   H195      1.0  0.23791  0.44929  0.49122  1.0000
  H   H196      1.0  0.25904  0.49240  0.48956  1.0000
  H   H197      1.0  0.23976  0.52657  0.45105  1.0000
  H   H198      1.0  0.22961  0.55791  0.44621  1.0000
  N   N26       1.0  0.48664  0.74099  0.34723  1.0000
  C   C211      1.0  0.47291  0.75270  0.36314  1.0000
  C   C212      1.0  0.51252  0.75393  0.34758  1.0000
  C   C213      1.0  0.47223  0.71552  0.33138  1.0000
  C   C214      1.0  0.45468  0.70676  0.26152  1.0000
  C   C215      1.0  0.43526  0.68289  0.26262  1.0000
  C   C216      1.0  0.43400  0.66603  0.32733  1.0000
  C   C217      1.0  0.45221  0.67448  0.39470  1.0000
  C   C218      1.0  0.47084  0.69883  0.39719  1.0000
  C   C219      1.0  0.46819  0.76407  0.29043  1.0000
  C   C220      1.0  0.44804  0.76744  0.29207  1.0000
  C   C221      1.0  0.43171  0.75965  0.36634  1.0000
  C   C222      1.0  0.43797  0.75026  0.44228  1.0000
  C   C223      1.0  0.45801  0.74672  0.44058  1.0000
  C   C224      1.0  0.52594  0.75951  0.26633  1.0000
  C   C225      1.0  0.55147  0.77276  0.26689  1.0000
  C   C226      1.0  0.56494  0.78089  0.34870  1.0000
  C   C227      1.0  0.55118  0.77480  0.42996  1.0000
  C   C228      1.0  0.52566  0.76188  0.42944  1.0000
  H   H199      1.0  0.44445  0.77402  0.23458  1.0000
  H   H200      1.0  0.47783  0.76750  0.23159  1.0000
  H   H201      1.0  0.46035  0.73761  0.49296  1.0000
  H   H202      1.0  0.42732  0.74460  0.49870  1.0000
  H   H203      1.0  0.45428  0.71847  0.21548  1.0000
  H   H204      1.0  0.42156  0.67810  0.21696  1.0000
  H   H205      1.0  0.51707  0.75403  0.20570  1.0000
  H   H206      1.0  0.56015  0.77595  0.20596  1.0000
  H   H207      1.0  0.55969  0.78016  0.49133  1.0000
  H   H208      1.0  0.51658  0.75816  0.48971  1.0000
  H   H209      1.0  0.48243  0.70476  0.45112  1.0000
  H   H210      1.0  0.45111  0.66327  0.44626  1.0000
  N   N27       1.0  0.26797  0.73726  0.34728  1.0000
  C   C229      1.0  0.25627  0.71183  0.36317  1.0000
  C   C230      1.0  0.25503  0.75019  0.34761  1.0000
  C   C231      1.0  0.29344  0.74830  0.33131  1.0000
  C   C232      1.0  0.30220  0.73953  0.26144  1.0000
  C   C233      1.0  0.32608  0.74400  0.26251  1.0000
  C   C234      1.0  0.34293  0.75958  0.32727  1.0000
  C   C235      1.0  0.33447  0.76933  0.39468  1.0000
  C   C236      1.0  0.31012  0.76360  0.39716  1.0000
  C   C237      1.0  0.24491  0.69573  0.29045  1.0000
  C   C238      1.0  0.24150  0.67219  0.29215  1.0000
  C   C239      1.0  0.24933  0.66368  0.36638  1.0000
  C   C240      1.0  0.25873  0.67934  0.44228  1.0000
  C   C241      1.0  0.26225  0.70291  0.44063  1.0000
  C   C242      1.0  0.24949  0.75808  0.26635  1.0000
  C   C243      1.0  0.23624  0.77035  0.26691  1.0000
  C   C244      1.0  0.22808  0.77567  0.34870  1.0000
  C   C245      1.0  0.23414  0.76796  0.42996  1.0000
  C   C246      1.0  0.24705  0.75535  0.42944  1.0000
  H   H211      1.0  0.23498  0.66204  0.23458  1.0000
  H   H212      1.0  0.24149  0.70194  0.23159  1.0000
  H   H213      1.0  0.27135  0.71435  0.49302  1.0000
  H   H214      1.0  0.26437  0.67433  0.49876  1.0000
  H   H215      1.0  0.29050  0.72742  0.21539  1.0000
  H   H216      1.0  0.33088  0.73510  0.21685  1.0000
  H   H217      1.0  0.25501  0.75471  0.20574  1.0000
  H   H218      1.0  0.23310  0.77588  0.20599  1.0000
  H   H219      1.0  0.22875  0.77109  0.49131  1.0000
  H   H220      1.0  0.25074  0.74997  0.48972  1.0000
  H   H221      1.0  0.30419  0.76926  0.45109  1.0000
  H   H222      1.0  0.34569  0.77944  0.44622  1.0000
  N   N28       1.0  0.74582  0.47805  0.34721  1.0000
  C   C247      1.0  0.72039  0.46433  0.36312  1.0000
  C   C248      1.0  0.75876  0.50393  0.34756  1.0000
  C   C249      1.0  0.75687  0.46363  0.33136  1.0000
  C   C250      1.0  0.74806  0.44607  0.26161  1.0000
  C   C251      1.0  0.75257  0.42669  0.26245  1.0000
  C   C252      1.0  0.76815  0.42540  0.32720  1.0000
  C   C253      1.0  0.77787  0.44359  0.39469  1.0000
  C   C254      1.0  0.77217  0.46224  0.39716  1.0000
  C   C255      1.0  0.70429  0.45959  0.29040  1.0000
  C   C256      1.0  0.68077  0.43945  0.29206  1.0000
  C   C257      1.0  0.67223  0.42313  0.36637  1.0000
  C   C258      1.0  0.68789  0.42939  0.44225  1.0000
  C   C259      1.0  0.71147  0.44944  0.44059  1.0000
  C   C260      1.0  0.76662  0.51736  0.26632  1.0000
  C   C261      1.0  0.77890  0.54289  0.26689  1.0000
  C   C262      1.0  0.78424  0.55636  0.34869  1.0000
  C   C263      1.0  0.77656  0.54259  0.42995  1.0000
  C   C264      1.0  0.76395  0.51707  0.42942  1.0000
  H   H223      1.0  0.67060  0.43585  0.23456  1.0000
  H   H224      1.0  0.71051  0.46923  0.23154  1.0000
  H   H225      1.0  0.72291  0.45178  0.49299  1.0000
  H   H226      1.0  0.68288  0.41876  0.49876  1.0000
  H   H227      1.0  0.73603  0.44573  0.21531  1.0000
  H   H228      1.0  0.74369  0.41301  0.21670  1.0000
  H   H229      1.0  0.76323  0.50848  0.20569  1.0000
  H   H230      1.0  0.78440  0.55156  0.20596  1.0000
  H   H231      1.0  0.77971  0.55110  0.49132  1.0000
  H   H232      1.0  0.75859  0.50799  0.48970  1.0000
  H   H233      1.0  0.77782  0.47380  0.45119  1.0000
  H   H234      1.0  0.78797  0.44247  0.44624  1.0000
  N   N29       1.0  0.53093  0.25936  0.34720  1.0000
  C   C265      1.0  0.54465  0.24764  0.36312  1.0000
  C   C266      1.0  0.50505  0.24643  0.34756  1.0000
  C   C267      1.0  0.54536  0.28483  0.33138  1.0000
  C   C268      1.0  0.56290  0.29357  0.26154  1.0000
  C   C269      1.0  0.58228  0.31746  0.26242  1.0000
  C   C270      1.0  0.58357  0.33431  0.32719  1.0000
  C   C271      1.0  0.56537  0.32586  0.39468  1.0000
  C   C272      1.0  0.54672  0.30151  0.39717  1.0000
  C   C273      1.0  0.54936  0.23628  0.29036  1.0000
  C   C274      1.0  0.56951  0.23291  0.29206  1.0000
  C   C275      1.0  0.58583  0.24069  0.36639  1.0000
  C   C276      1.0  0.57956  0.25008  0.44231  1.0000
  C   C277      1.0  0.55951  0.25361  0.44065  1.0000
  C   C278      1.0  0.49162  0.24086  0.26630  1.0000
  C   C279      1.0  0.46610  0.22760  0.26687  1.0000
  C   C280      1.0  0.45262  0.21949  0.34868  1.0000
  C   C281      1.0  0.46639  0.22558  0.42994  1.0000
  C   C282      1.0  0.49191  0.23848  0.42942  1.0000
  H   H235      1.0  0.57311  0.22634  0.23457  1.0000
  H   H236      1.0  0.53973  0.23287  0.23150  1.0000
  H   H237      1.0  0.55715  0.26270  0.49305  1.0000
  H   H238      1.0  0.59018  0.25569  0.49883  1.0000
  H   H239      1.0  0.56322  0.28187  0.21522  1.0000
  H   H240      1.0  0.59595  0.32227  0.21660  1.0000
  H   H241      1.0  0.50050  0.24634  0.20568  1.0000
  H   H242      1.0  0.45742  0.22443  0.20595  1.0000
  H   H243      1.0  0.45788  0.22022  0.49131  1.0000
  H   H244      1.0  0.50099  0.24220  0.48968  1.0000
  H   H245      1.0  0.53517  0.29559  0.45120  1.0000
  H   H246      1.0  0.56649  0.33708  0.44624  1.0000
  N   N30       1.0  0.74960  0.26316  0.34711  1.0000
  C   C283      1.0  0.76131  0.28859  0.36333  1.0000
  C   C284      1.0  0.76252  0.25021  0.34750  1.0000
  C   C285      1.0  0.72413  0.25215  0.33126  1.0000
  C   C286      1.0  0.71539  0.26096  0.26151  1.0000
  C   C287      1.0  0.69150  0.25646  0.26245  1.0000
  C   C288      1.0  0.67466  0.24087  0.32722  1.0000
  C   C289      1.0  0.68310  0.23108  0.39456  1.0000
  C   C290      1.0  0.70746  0.23681  0.39704  1.0000
  C   C291      1.0  0.77268  0.30466  0.29052  1.0000
  C   C292      1.0  0.77606  0.32818  0.29218  1.0000
  C   C293      1.0  0.76827  0.33672  0.36645  1.0000
  C   C294      1.0  0.75888  0.32108  0.44241  1.0000
  C   C295      1.0  0.75538  0.29751  0.44084  1.0000
  C   C296      1.0  0.76804  0.24230  0.26627  1.0000
  C   C297      1.0  0.78129  0.23002  0.26684  1.0000
  C   C298      1.0  0.78946  0.22472  0.34864  1.0000
  C   C299      1.0  0.78341  0.23244  0.42988  1.0000
  C   C300      1.0  0.77051  0.24506  0.42935  1.0000
  H   H247      1.0  0.78256  0.33831  0.23456  1.0000
  H   H248      1.0  0.77602  0.29840  0.23163  1.0000
  H   H249      1.0  0.74624  0.28605  0.49314  1.0000
  H   H250      1.0  0.75326  0.32610  0.49889  1.0000
  H   H251      1.0  0.72708  0.27301  0.21523  1.0000
  H   H252      1.0  0.68668  0.26532  0.21670  1.0000
  H   H253      1.0  0.76252  0.24565  0.20565  1.0000
  H   H254      1.0  0.78442  0.22447  0.20593  1.0000
  H   H255      1.0  0.78881  0.22933  0.49124  1.0000
  H   H256      1.0  0.76683  0.25046  0.48961  1.0000
  H   H257      1.0  0.71338  0.23116  0.45100  1.0000
  H   H258      1.0  0.67189  0.22099  0.44615  1.0000
  C   C301      1.0  0.19468  0.38140  0.43905  1.0000
  C   C302      1.0  0.19411  0.36641  0.36546  1.0000
  N   N31       1.0  0.20793  0.40582  0.42549  1.0000
  C   C303      1.0  0.18140  0.37347  0.52969  1.0000
  C   C304      1.0  0.18368  0.39547  0.58597  1.0000
  H   H259      1.0  0.20250  0.40814  0.60280  1.0000
  H   H260      1.0  0.17368  0.38967  0.64978  1.0000
  H   H261      1.0  0.17661  0.40518  0.54761  1.0000
  C   C305      1.0  0.19199  0.36112  0.59151  1.0000
  H   H262      1.0  0.21168  0.37105  0.58945  1.0000
  H   H263      1.0  0.18565  0.34262  0.57140  1.0000
  H   H264      1.0  0.18646  0.36027  0.66219  1.0000
  C   C306      1.0  0.15375  0.35610  0.51492  1.0000
  H   H265      1.0  0.14641  0.36414  0.46865  1.0000
  H   H266      1.0  0.14390  0.35222  0.57895  1.0000
  H   H267      1.0  0.14993  0.33882  0.48700  1.0000
  C   C307      1.0  0.62757  0.80492  0.43918  1.0000
  C   C308      1.0  0.64257  0.81932  0.36555  1.0000
  N   N32       1.0  0.60315  0.79374  0.42558  1.0000
  C   C309      1.0  0.63550  0.79956  0.52980  1.0000
  C   C310      1.0  0.61349  0.77990  0.58622  1.0000
  H   H268      1.0  0.60087  0.78611  0.60304  1.0000
  H   H269      1.0  0.61930  0.77571  0.65002  1.0000
  H   H270      1.0  0.60373  0.76311  0.54795  1.0000
  C   C311      1.0  0.64793  0.82252  0.59152  1.0000
  H   H271      1.0  0.63806  0.83233  0.58945  1.0000
  H   H272      1.0  0.66643  0.83461  0.57133  1.0000
  H   H273      1.0  0.64878  0.81786  0.66221  1.0000
  C   C312      1.0  0.65281  0.78921  0.51497  1.0000
  H   H274      1.0  0.64470  0.77381  0.46880  1.0000
  H   H275      1.0  0.65669  0.78324  0.57899  1.0000
  H   H276      1.0  0.67008  0.80262  0.48688  1.0000
  C   C313      1.0  0.20406  0.81427  0.43915  1.0000
  C   C314      1.0  0.18969  0.81490  0.36546  1.0000
  N   N33       1.0  0.21523  0.80102  0.42558  1.0000
  C   C315      1.0  0.20939  0.82754  0.52980  1.0000
  C   C316      1.0  0.22903  0.82517  0.58629  1.0000
  H   H277      1.0  0.22281  0.80633  0.60308  1.0000
  H   H278      1.0  0.23321  0.83516  0.65012  1.0000
  H   H279      1.0  0.24583  0.83220  0.54809  1.0000
  C   C317      1.0  0.18643  0.81702  0.59144  1.0000
  H   H280      1.0  0.17659  0.79733  0.58928  1.0000
  H   H281      1.0  0.17435  0.82345  0.57124  1.0000
  H   H282      1.0  0.19107  0.82251  0.66216  1.0000
  C   C318      1.0  0.21977  0.85520  0.51504  1.0000
  H   H283      1.0  0.23519  0.86250  0.46895  1.0000
  H   H284      1.0  0.22571  0.86504  0.57910  1.0000
  H   H285      1.0  0.20637  0.85909  0.48688  1.0000
  C   C319      1.0  0.82285  0.61898  0.43916  1.0000
  C   C320      1.0  0.82346  0.63398  0.36553  1.0000
  N   N34       1.0  0.80960  0.59455  0.42558  1.0000
  C   C321      1.0  0.83611  0.62691  0.52985  1.0000
  C   C322      1.0  0.83374  0.60490  0.58631  1.0000
  H   H286      1.0  0.81490  0.59227  0.60307  1.0000
  H   H287      1.0  0.84372  0.61070  0.65016  1.0000
  H   H288      1.0  0.84079  0.59514  0.54811  1.0000
  C   C323      1.0  0.82556  0.63934  0.59147  1.0000
  H   H289      1.0  0.80587  0.62946  0.58930  1.0000
  H   H290      1.0  0.83197  0.65784  0.57127  1.0000
  H   H291      1.0  0.83105  0.64019  0.66219  1.0000
  C   C324      1.0  0.86377  0.64422  0.51514  1.0000
  H   H292      1.0  0.87108  0.63611  0.46906  1.0000
  H   H293      1.0  0.87360  0.64810  0.57923  1.0000
  H   H294      1.0  0.86764  0.66149  0.48702  1.0000
  C   C325      1.0  0.39000  0.19551  0.43911  1.0000
  C   C326      1.0  0.37500  0.18110  0.36550  1.0000
  N   N35       1.0  0.41442  0.20667  0.42553  1.0000
  C   C327      1.0  0.38208  0.20089  0.52969  1.0000
  C   C328      1.0  0.40409  0.22055  0.58609  1.0000
  H   H295      1.0  0.41670  0.21433  0.60296  1.0000
  H   H296      1.0  0.39829  0.22476  0.64986  1.0000
  H   H297      1.0  0.41386  0.23734  0.54778  1.0000
  C   C329      1.0  0.36963  0.17795  0.59147  1.0000
  H   H298      1.0  0.37949  0.16811  0.58944  1.0000
  H   H299      1.0  0.35112  0.16586  0.57131  1.0000
  H   H300      1.0  0.36879  0.18262  0.66215  1.0000
  C   C330      1.0  0.36478  0.21125  0.51479  1.0000
  H   H301      1.0  0.37290  0.22665  0.46859  1.0000
  H   H302      1.0  0.36090  0.21723  0.57878  1.0000
  H   H303      1.0  0.34751  0.19784  0.48669  1.0000
  C   C331      1.0  0.81347  0.18610  0.43907  1.0000
  C   C332      1.0  0.82787  0.18551  0.36543  1.0000
  N   N36       1.0  0.80230  0.19936  0.42551  1.0000
  C   C333      1.0  0.80814  0.17284  0.52974  1.0000
  C   C334      1.0  0.78844  0.17515  0.58608  1.0000
  H   H304      1.0  0.79461  0.19397  0.60287  1.0000
  H   H305      1.0  0.78426  0.16516  0.64990  1.0000
  H   H306      1.0  0.77165  0.16807  0.54778  1.0000
  C   C335      1.0  0.83109  0.18343  0.59147  1.0000
  H   H307      1.0  0.84087  0.20312  0.58936  1.0000
  H   H308      1.0  0.84323  0.17707  0.57134  1.0000
  H   H309      1.0  0.82644  0.17792  0.66218  1.0000
  C   C336      1.0  0.79785  0.14519  0.51503  1.0000
  H   H310      1.0  0.78245  0.13785  0.46882  1.0000
  H   H311      1.0  0.79188  0.13535  0.57908  1.0000
  H   H312      1.0  0.81129  0.14135  0.48705  1.0000
  C   C337      1.0  0.20476  0.20712  0.41232  1.0000
  N   N37       1.0  0.21703  0.19478  0.41843  1.0000
  C   C338      1.0  0.21988  0.18289  0.34662  1.0000
  O   O7        1.0  0.20320  0.21818  0.48840  1.0000
  H   H313      1.0  0.22374  0.19452  0.47715  1.0000
  C   C339      1.0  0.80184  0.98925  0.41226  1.0000
  N   N38       1.0  0.81418  0.01386  0.41838  1.0000
  C   C340      1.0  0.82609  0.02860  0.34660  1.0000
  O   O8        1.0  0.79076  0.97663  0.48832  1.0000
  H   H314      1.0  0.81442  0.02083  0.47709  1.0000
  C   C341      1.0  0.01973  0.80420  0.41224  1.0000
  N   N39       1.0  0.99511  0.79193  0.41834  1.0000
  C   C342      1.0  0.98037  0.78911  0.34656  1.0000
  O   O9        1.0  0.03234  0.80573  0.48829  1.0000
  H   H315      1.0  0.98814  0.78520  0.47703  1.0000
  C   C343      1.0  0.81278  0.79324  0.41224  1.0000
  N   N40       1.0  0.80050  0.80558  0.41835  1.0000
  C   C344      1.0  0.79768  0.81750  0.34657  1.0000
  O   O10       1.0  0.81430  0.78215  0.48827  1.0000
  H   H316      1.0  0.79376  0.80581  0.47703  1.0000
  C   C345      1.0  0.21568  0.01115  0.41226  1.0000
  N   N41       1.0  0.20334  0.98653  0.41837  1.0000
  C   C346      1.0  0.19146  0.97180  0.34654  1.0000
  O   O11       1.0  0.22672  0.02376  0.48836  1.0000
  H   H317      1.0  0.20307  0.97957  0.47710  1.0000
  C   C347      1.0  0.99783  0.19619  0.41237  1.0000
  N   N42       1.0  0.02244  0.20846  0.41848  1.0000
  C   C348      1.0  0.03718  0.21129  0.34668  1.0000
  O   O12       1.0  0.98522  0.19465  0.48845  1.0000
  H   H318      1.0  0.02941  0.21517  0.47719  1.0000
  C   C349      1.0  0.26174  0.61309  0.40444  1.0000
  N   N43       1.0  0.26198  0.63434  0.41535  1.0000
  C   C350      1.0  0.24890  0.64091  0.36135  1.0000
  O   O13       1.0  0.27592  0.60871  0.46047  1.0000
  H   H319      1.0  0.27254  0.64526  0.46182  1.0000
  C   C351      1.0  0.39592  0.64023  0.40458  1.0000
  N   N44       1.0  0.37466  0.61923  0.41550  1.0000
  C   C352      1.0  0.36806  0.59959  0.36139  1.0000
  O   O14       1.0  0.40033  0.65878  0.46073  1.0000
  H   H320      1.0  0.36376  0.61885  0.46207  1.0000
  C   C353      1.0  0.36873  0.74730  0.40449  1.0000
  N   N45       1.0  0.38974  0.74705  0.41542  1.0000
  C   C354      1.0  0.40937  0.76008  0.36128  1.0000
  O   O15       1.0  0.35017  0.73314  0.46057  1.0000
  H   H321      1.0  0.39010  0.73649  0.46188  1.0000
  C   C355      1.0  0.75587  0.38732  0.40446  1.0000
  N   N46       1.0  0.75564  0.36608  0.41544  1.0000
  C   C356      1.0  0.76870  0.35949  0.36139  1.0000
  O   O16       1.0  0.74169  0.39171  0.46048  1.0000
  H   H322      1.0  0.74507  0.35515  0.46187  1.0000
  C   C357      1.0  0.62164  0.36013  0.40444  1.0000
  N   N47       1.0  0.64288  0.38115  0.41540  1.0000
  C   C358      1.0  0.64946  0.40078  0.36132  1.0000
  O   O17       1.0  0.61726  0.34156  0.46047  1.0000
  H   H323      1.0  0.65381  0.38151  0.46184  1.0000
  C   C359      1.0  0.64881  0.25308  0.40456  1.0000
  N   N48       1.0  0.62780  0.25330  0.41549  1.0000
  C   C360      1.0  0.60816  0.24025  0.36139  1.0000
  O   O18       1.0  0.66737  0.26724  0.46066  1.0000
  H   H324      1.0  0.62742  0.26384  0.46200  1.0000
