data_image0
_chemical_formula_structural       C11H3CH3CHC4H3CH3CHC4H3CH3CHC3H2CHC3H2CHC3H2CHC4H3CH3CHC4H3CH3CHC4H3CH3CHC4H3CH3CHC4H3CH3CHC4H3CH3CHC3H2CHC3H2CHC3H2CHC3H2CHC3H2CHC3H2CHC4H3CH3CHC4H3CH3CHC4H3CH3CHC4H3CH3CHC4H3CH3CHC4H3CH3CHNCNCN4CNCNCN4CNCNCN4CNCNCN4CNCNCN4CNCNCN4CNCNCN5CNCN5CNCN5CNCN5CNCN5CNCN5CNCN4CNCNCN4CNCNCN4CNCNCN4C3H2CHC3H2CHC3H2CHC4H3CH3CHC4H3CH3CHC4H3CH3CHC3H2CHC3H2CHC3H2CHC3H2CHC3H2CHC3H2CHC4H3CH3CHC4H3CH3CHC4H3CH3CHC4H3CH3CHC4H3CH3CHC4H3CH3CHC3H2CHC3H2CHC3H2CHC3H2CHC3H2CHC3H2CH
_chemical_formula_sum              "C288 H240 N96"
_cell_length_a       63.7036
_cell_length_b       63.7036
_cell_length_c       14.6484
_cell_angle_alpha    90
_cell_angle_beta     90
_cell_angle_gamma    120

_space_group_name_H-M_alt    "P 1"
_space_group_IT_number       1

loop_
  _space_group_symop_operation_xyz
  'x, y, z'

loop_
  _atom_site_type_symbol
  _atom_site_label
  _atom_site_symmetry_multiplicity
  _atom_site_fract_x
  _atom_site_fract_y
  _atom_site_fract_z
  _atom_site_occupancy
  C   C1        1.0  0.99535  0.99118  0.35922  1.0000
  C   C2        1.0  0.42046  0.17121  0.35844  1.0000
  C   C3        1.0  0.77475  0.60953  0.35840  1.0000
  C   C4        1.0  0.85879  0.25524  0.35847  1.0000
  C   C5        1.0  0.14980  0.62889  0.35762  1.0000
  C   C6        1.0  0.40112  0.52693  0.35761  1.0000
  C   C7        1.0  0.50308  0.88020  0.35768  1.0000
  C   C8        1.0  0.01200  0.13443  0.35572  1.0000
  C   C9        1.0  0.02046  0.12722  0.27766  1.0000
  C   C10       1.0  0.02074  0.10464  0.27791  1.0000
  C   C11       1.0  0.02811  0.14268  0.19349  1.0000
  H   H1        1.0  0.02728  0.15927  0.19945  1.0000
  H   H2        1.0  0.01647  0.13254  0.13630  1.0000
  H   H3        1.0  0.04684  0.14813  0.17671  1.0000
  C   C12       1.0  0.02869  0.09702  0.19405  1.0000
  H   H4        1.0  0.02847  0.07990  0.20080  1.0000
  H   H5        1.0  0.04726  0.11065  0.17680  1.0000
  H   H6        1.0  0.01684  0.09499  0.13691  1.0000
  C   C13       1.0  0.00647  0.15335  0.35669  1.0000
  H   H7        1.0  0.98898  0.14841  0.35757  1.0000
  C   C14       1.0  0.89552  0.88361  0.35565  1.0000
  C   C15       1.0  0.90275  0.89928  0.27758  1.0000
  C   C16       1.0  0.92535  0.92212  0.27784  1.0000
  C   C17       1.0  0.88730  0.89147  0.19340  1.0000
  H   H8        1.0  0.87069  0.87406  0.19940  1.0000
  H   H9        1.0  0.89743  0.88994  0.13625  1.0000
  H   H10       1.0  0.88187  0.90476  0.17658  1.0000
  C   C18       1.0  0.93299  0.93769  0.19399  1.0000
  H   H11       1.0  0.95011  0.95458  0.20073  1.0000
  H   H12       1.0  0.91936  0.94265  0.17674  1.0000
  H   H13       1.0  0.93499  0.92786  0.13685  1.0000
  C   C19       1.0  0.87661  0.85914  0.35661  1.0000
  H   H14       1.0  0.88157  0.84661  0.35748  1.0000
  C   C20       1.0  0.14645  0.01804  0.35567  1.0000
  C   C21       1.0  0.13077  0.00955  0.27765  1.0000
  C   C22       1.0  0.10790  0.00925  0.27791  1.0000
  C   C23       1.0  0.13859  0.00190  0.19349  1.0000
  H   H15       1.0  0.15602  0.00276  0.19943  1.0000
  H   H16       1.0  0.14006  0.01352  0.13627  1.0000
  H   H17       1.0  0.12532  0.98316  0.17679  1.0000
  C   C24       1.0  0.09232  0.00128  0.19409  1.0000
  H   H18       1.0  0.07541  0.00148  0.20086  1.0000
  H   H19       1.0  0.08741  0.98271  0.17687  1.0000
  H   H20       1.0  0.10213  0.01313  0.13692  1.0000
  C   C25       1.0  0.17090  0.02356  0.35669  1.0000
  H   H21       1.0  0.18346  0.04104  0.35767  1.0000
  C   C26       1.0  0.12488  0.35429  0.35991  1.0000
  C   C27       1.0  0.11108  0.34333  0.28068  1.0000
  C   C28       1.0  0.09247  0.31898  0.28038  1.0000
  H   H22       1.0  0.08204  0.31249  0.22271  1.0000
  H   H23       1.0  0.11339  0.35344  0.22319  1.0000
  C   C29       1.0  0.13896  0.37964  0.35899  1.0000
  H   H24       1.0  0.13003  0.38873  0.36106  1.0000
  C   C30       1.0  0.67570  0.77657  0.35991  1.0000
  C   C31       1.0  0.68664  0.77370  0.28068  1.0000
  C   C32       1.0  0.71098  0.77941  0.28033  1.0000
  H   H25       1.0  0.71749  0.77552  0.22258  1.0000
  H   H26       1.0  0.67654  0.76598  0.22309  1.0000
  C   C33       1.0  0.65036  0.76533  0.35901  1.0000
  H   H27       1.0  0.64125  0.74730  0.36114  1.0000
  C   C34       1.0  0.25340  0.90512  0.35992  1.0000
  C   C35       1.0  0.25624  0.91892  0.28068  1.0000
  C   C36       1.0  0.25051  0.93753  0.28038  1.0000
  H   H28       1.0  0.25444  0.94796  0.22271  1.0000
  H   H29       1.0  0.26405  0.91661  0.22320  1.0000
  C   C37       1.0  0.26467  0.89104  0.35900  1.0000
  H   H30       1.0  0.28270  0.89997  0.36110  1.0000
  C   C38       1.0  0.30857  0.08065  0.35367  1.0000
  C   C39       1.0  0.31921  0.09485  0.27330  1.0000
  C   C40       1.0  0.34429  0.11385  0.27337  1.0000
  C   C41       1.0  0.30457  0.08928  0.18740  1.0000
  H   H31       1.0  0.28575  0.07502  0.19467  1.0000
  H   H32       1.0  0.31257  0.08353  0.13409  1.0000
  H   H33       1.0  0.30422  0.10538  0.16437  1.0000
  C   C42       1.0  0.35551  0.12780  0.18749  1.0000
  H   H34       1.0  0.37445  0.14178  0.19433  1.0000
  H   H35       1.0  0.34578  0.13692  0.16506  1.0000
  H   H36       1.0  0.35465  0.11551  0.13386  1.0000
  C   C43       1.0  0.28716  0.05799  0.35303  1.0000
  H   H37       1.0  0.28941  0.04385  0.36479  1.0000
  C   C44       1.0  0.79619  0.72143  0.35400  1.0000
  C   C45       1.0  0.79971  0.71081  0.27353  1.0000
  C   C46       1.0  0.79359  0.68572  0.27346  1.0000
  C   C47       1.0  0.80876  0.72547  0.18770  1.0000
  H   H38       1.0  0.81333  0.74429  0.19511  1.0000
  H   H39       1.0  0.79501  0.71750  0.13441  1.0000
  H   H40       1.0  0.82521  0.72584  0.16458  1.0000
  C   C48       1.0  0.79633  0.67453  0.18752  1.0000
  H   H41       1.0  0.79136  0.65558  0.19428  1.0000
  H   H42       1.0  0.81518  0.68426  0.16514  1.0000
  H   H43       1.0  0.78491  0.67542  0.13388  1.0000
  C   C49       1.0  0.79496  0.74284  0.35382  1.0000
  H   H44       1.0  0.77842  0.74055  0.36183  1.0000
  C   C50       1.0  0.94935  0.23392  0.35366  1.0000
  C   C51       1.0  0.93515  0.23035  0.27330  1.0000
  C   C52       1.0  0.91615  0.23644  0.27338  1.0000
  C   C53       1.0  0.94072  0.22130  0.18739  1.0000
  H   H45       1.0  0.95497  0.21673  0.19464  1.0000
  H   H46       1.0  0.94647  0.23505  0.13408  1.0000
  H   H47       1.0  0.92461  0.20484  0.16434  1.0000
  C   C54       1.0  0.90220  0.23372  0.18750  1.0000
  H   H48       1.0  0.88822  0.23868  0.19435  1.0000
  H   H49       1.0  0.89308  0.21487  0.16505  1.0000
  H   H50       1.0  0.91449  0.24515  0.13387  1.0000
  C   C55       1.0  0.97201  0.23517  0.35299  1.0000
  H   H51       1.0  0.98615  0.25157  0.36469  1.0000
  C   C56       1.0  0.33506  0.49304  0.34847  1.0000
  C   C57       1.0  0.32081  0.48402  0.26726  1.0000
  C   C58       1.0  0.29576  0.47790  0.26760  1.0000
  C   C59       1.0  0.33196  0.48124  0.18120  1.0000
  H   H52       1.0  0.35101  0.48650  0.18742  1.0000
  H   H53       1.0  0.33089  0.49250  0.12735  1.0000
  H   H54       1.0  0.32232  0.46234  0.15929  1.0000
  C   C60       1.0  0.28122  0.46937  0.18123  1.0000
  H   H55       1.0  0.26264  0.46561  0.18747  1.0000
  H   H56       1.0  0.28032  0.45267  0.15792  1.0000
  H   H57       1.0  0.28970  0.48317  0.12832  1.0000
  C   C61       1.0  0.35885  0.49760  0.35585  1.0000
  H   H58       1.0  0.36131  0.48337  0.35815  1.0000
  C   C62       1.0  0.53698  0.84805  0.34853  1.0000
  C   C63       1.0  0.54599  0.84281  0.26730  1.0000
  C   C64       1.0  0.55211  0.82387  0.26762  1.0000
  C   C65       1.0  0.54878  0.85674  0.18125  1.0000
  H   H59       1.0  0.54352  0.87053  0.18749  1.0000
  H   H60       1.0  0.53752  0.84442  0.12740  1.0000
  H   H61       1.0  0.56767  0.86599  0.15935  1.0000
  C   C66       1.0  0.56064  0.81787  0.18124  1.0000
  H   H62       1.0  0.56440  0.80305  0.18747  1.0000
  H   H63       1.0  0.57734  0.83367  0.15795  1.0000
  H   H64       1.0  0.54685  0.81256  0.12833  1.0000
  C   C67       1.0  0.53242  0.86727  0.35592  1.0000
  H   H65       1.0  0.54664  0.88396  0.35789  1.0000
  C   C68       1.0  0.18197  0.69494  0.34847  1.0000
  C   C69       1.0  0.18721  0.70920  0.26726  1.0000
  C   C70       1.0  0.20614  0.73425  0.26760  1.0000
  C   C71       1.0  0.17327  0.69804  0.18120  1.0000
  H   H66       1.0  0.15949  0.67900  0.18742  1.0000
  H   H67       1.0  0.18560  0.69911  0.12735  1.0000
  H   H68       1.0  0.16402  0.70769  0.15928  1.0000
  C   C72       1.0  0.21214  0.74878  0.18121  1.0000
  H   H69       1.0  0.22697  0.76736  0.18746  1.0000
  H   H70       1.0  0.19635  0.74968  0.15791  1.0000
  H   H71       1.0  0.21747  0.74030  0.12832  1.0000
  C   C73       1.0  0.16274  0.67116  0.35585  1.0000
  H   H72       1.0  0.14606  0.66870  0.35822  1.0000
  C   C74       1.0  0.48576  0.27846  0.36520  1.0000
  C   C75       1.0  0.49508  0.29308  0.28653  1.0000
  C   C76       1.0  0.50150  0.31763  0.28703  1.0000
  H   H73       1.0  0.50772  0.32730  0.22757  1.0000
  H   H74       1.0  0.49725  0.28593  0.22696  1.0000
  C   C77       1.0  0.48153  0.25472  0.35910  1.0000
  H   H75       1.0  0.49591  0.25263  0.35230  1.0000
  C   C78       1.0  0.81669  0.54423  0.36516  1.0000
  C   C79       1.0  0.82200  0.53492  0.28647  1.0000
  C   C80       1.0  0.84012  0.52849  0.28700  1.0000
  H   H76       1.0  0.84358  0.52228  0.22752  1.0000
  H   H77       1.0  0.81270  0.53278  0.22688  1.0000
  C   C81       1.0  0.79719  0.54846  0.35905  1.0000
  H   H78       1.0  0.78070  0.53408  0.35224  1.0000
  C   C82       1.0  0.75154  0.21331  0.36518  1.0000
  C   C83       1.0  0.73692  0.20800  0.28650  1.0000
  C   C84       1.0  0.71237  0.18988  0.28701  1.0000
  H   H79       1.0  0.70271  0.18644  0.22755  1.0000
  H   H80       1.0  0.74408  0.21732  0.22693  1.0000
  C   C85       1.0  0.77528  0.23281  0.35910  1.0000
  H   H81       1.0  0.77738  0.24929  0.35229  1.0000
  C   C86       1.0  0.17635  0.50807  0.36714  1.0000
  C   C87       1.0  0.17654  0.52103  0.28862  1.0000
  C   C88       1.0  0.16567  0.53551  0.28878  1.0000
  H   H82       1.0  0.16581  0.54411  0.22944  1.0000
  H   H83       1.0  0.18451  0.51991  0.22942  1.0000
  C   C89       1.0  0.18872  0.49518  0.36107  1.0000
  H   H84       1.0  0.20668  0.50464  0.35560  1.0000
  C   C90       1.0  0.52193  0.67428  0.36714  1.0000
  C   C91       1.0  0.50897  0.66151  0.28864  1.0000
  C   C92       1.0  0.49450  0.63616  0.28879  1.0000
  H   H85       1.0  0.48588  0.62770  0.22948  1.0000
  H   H86       1.0  0.51005  0.67060  0.22947  1.0000
  C   C93       1.0  0.53482  0.69954  0.36107  1.0000
  H   H87       1.0  0.52536  0.70804  0.35560  1.0000
  C   C94       1.0  0.35572  0.85365  0.36714  1.0000
  C   C95       1.0  0.36848  0.85347  0.28862  1.0000
  C   C96       1.0  0.39383  0.86433  0.28877  1.0000
  H   H88       1.0  0.40229  0.86419  0.22943  1.0000
  H   H89       1.0  0.35940  0.84549  0.22942  1.0000
  C   C97       1.0  0.33046  0.84129  0.36107  1.0000
  H   H90       1.0  0.32195  0.82332  0.35559  1.0000
  C   C98       1.0  0.54366  0.14857  0.34776  1.0000
  C   C99       1.0  0.53080  0.14804  0.26691  1.0000
  C   C100      1.0  0.51573  0.15898  0.26702  1.0000
  C   C101      1.0  0.53314  0.13634  0.18155  1.0000
  H   H91       1.0  0.54508  0.12878  0.18788  1.0000
  H   H92       1.0  0.54045  0.14961  0.12647  1.0000
  H   H93       1.0  0.51539  0.12151  0.16136  1.0000
  C   C102      1.0  0.50306  0.15918  0.18099  1.0000
  H   H94       1.0  0.49249  0.16825  0.18702  1.0000
  H   H95       1.0  0.49061  0.14063  0.15922  1.0000
  H   H96       1.0  0.51633  0.16858  0.12710  1.0000
  C   C103      1.0  0.55668  0.13640  0.35588  1.0000
  H   H97       1.0  0.54712  0.11841  0.35980  1.0000
  C   C104      1.0  0.62891  0.48630  0.34766  1.0000
  C   C105      1.0  0.64124  0.49917  0.26683  1.0000
  C   C106      1.0  0.66724  0.51424  0.26696  1.0000
  C   C107      1.0  0.62720  0.49683  0.18147  1.0000
  H   H98       1.0  0.60770  0.48488  0.18779  1.0000
  H   H99       1.0  0.63317  0.48952  0.12638  1.0000
  H   H100      1.0  0.63012  0.51458  0.16129  1.0000
  C   C108      1.0  0.68012  0.52691  0.18095  1.0000
  H   H101      1.0  0.69976  0.53749  0.18699  1.0000
  H   H102      1.0  0.67402  0.53937  0.15916  1.0000
  H   H103      1.0  0.67625  0.51365  0.12706  1.0000
  C   C109      1.0  0.60372  0.47329  0.35580  1.0000
  H   H104      1.0  0.59530  0.48286  0.35989  1.0000
  C   C110      1.0  0.88143  0.40109  0.34778  1.0000
  C   C111      1.0  0.88196  0.38876  0.26693  1.0000
  C   C112      1.0  0.87102  0.36275  0.26704  1.0000
  C   C113      1.0  0.89366  0.40280  0.18157  1.0000
  H   H105      1.0  0.90122  0.42230  0.18789  1.0000
  H   H106      1.0  0.88038  0.39683  0.12649  1.0000
  H   H107      1.0  0.90849  0.39988  0.16137  1.0000
  C   C114      1.0  0.87082  0.34988  0.18102  1.0000
  H   H108      1.0  0.86175  0.33024  0.18705  1.0000
  H   H109      1.0  0.88936  0.35598  0.15924  1.0000
  H   H110      1.0  0.86142  0.35375  0.12712  1.0000
  C   C115      1.0  0.89361  0.42628  0.35590  1.0000
  H   H111      1.0  0.91160  0.43471  0.35974  1.0000
  C   C116      1.0  0.99172  0.53213  0.35252  1.0000
  C   C117      1.0  0.00473  0.54444  0.27196  1.0000
  C   C118      1.0  0.03084  0.55744  0.27236  1.0000
  C   C119      1.0  0.99132  0.54301  0.18596  1.0000
  H   H112      1.0  0.97167  0.53311  0.19300  1.0000
  H   H113      1.0  0.99586  0.53400  0.13259  1.0000
  H   H114      1.0  0.99629  0.56122  0.16312  1.0000
  C   C120      1.0  0.04445  0.56938  0.18662  1.0000
  H   H115      1.0  0.06408  0.57890  0.19394  1.0000
  H   H116      1.0  0.03972  0.58278  0.16368  1.0000
  H   H117      1.0  0.03982  0.55583  0.13317  1.0000
  C   C121      1.0  0.96729  0.51434  0.35273  1.0000
  H   H118      1.0  0.96362  0.49725  0.34788  1.0000
  C   C122      1.0  0.49796  0.46568  0.35254  1.0000
  C   C123      1.0  0.48561  0.46634  0.27199  1.0000
  C   C124      1.0  0.47259  0.47942  0.27239  1.0000
  C   C125      1.0  0.48704  0.45435  0.18600  1.0000
  H   H119      1.0  0.49697  0.44463  0.19299  1.0000
  H   H120      1.0  0.49602  0.46789  0.13258  1.0000
  H   H121      1.0  0.46883  0.44109  0.16324  1.0000
  C   C126      1.0  0.46063  0.48107  0.18666  1.0000
  H   H122      1.0  0.45109  0.49116  0.19399  1.0000
  H   H123      1.0  0.44724  0.46293  0.16373  1.0000
  H   H124      1.0  0.47417  0.49000  0.13319  1.0000
  C   C127      1.0  0.51570  0.45898  0.35273  1.0000
  H   H125      1.0  0.53280  0.47239  0.34787  1.0000
  C   C128      1.0  0.56440  0.03828  0.35253  1.0000
  C   C129      1.0  0.56370  0.02527  0.27196  1.0000
  C   C130      1.0  0.55060  0.99916  0.27236  1.0000
  C   C131      1.0  0.57570  0.03868  0.18597  1.0000
  H   H126      1.0  0.58544  0.05833  0.19300  1.0000
  H   H127      1.0  0.56215  0.03415  0.13259  1.0000
  H   H128      1.0  0.58893  0.03371  0.16314  1.0000
  C   C132      1.0  0.54893  0.98555  0.18661  1.0000
  H   H129      1.0  0.53882  0.96593  0.19393  1.0000
  H   H130      1.0  0.56706  0.99028  0.16369  1.0000
  H   H131      1.0  0.54001  0.99018  0.13316  1.0000
  C   C133      1.0  0.57105  0.06271  0.35273  1.0000
  H   H132      1.0  0.55762  0.06638  0.34787  1.0000
  N   N1        1.0  0.99777  0.01375  0.35912  1.0000
  C   C134      1.0  0.01983  0.03464  0.35925  1.0000
  N   N2        1.0  0.03998  0.03222  0.35914  1.0000
  C   C135      1.0  0.03881  0.01016  0.35925  1.0000
  N   N3        1.0  0.01624  0.99001  0.35913  1.0000
  N   N4        1.0  0.97281  0.97152  0.35850  1.0000
  N   N5        1.0  0.05848  0.00729  0.35854  1.0000
  N   N6        1.0  0.02270  0.05718  0.35853  1.0000
  C   C136      1.0  0.01989  0.19628  0.35737  1.0000
  N   N7        1.0  0.04065  0.21838  0.35660  1.0000
  C   C137      1.0  0.04047  0.23971  0.35591  1.0000
  N   N8        1.0  0.01844  0.23829  0.35598  1.0000
  C   C138      1.0  0.99703  0.21694  0.35675  1.0000
  N   N9        1.0  0.99823  0.19606  0.35729  1.0000
  N   N10       1.0  0.02217  0.17630  0.35702  1.0000
  N   N11       1.0  0.97566  0.21658  0.35625  1.0000
  N   N12       1.0  0.06130  0.26113  0.35598  1.0000
  C   C139      1.0  0.83370  0.82962  0.35730  1.0000
  N   N13       1.0  0.81159  0.82826  0.35651  1.0000
  C   C140      1.0  0.79027  0.80673  0.35589  1.0000
  N   N14       1.0  0.79171  0.78613  0.35609  1.0000
  C   C141      1.0  0.81308  0.78611  0.35683  1.0000
  N   N15       1.0  0.83394  0.80819  0.35731  1.0000
  N   N16       1.0  0.85367  0.85189  0.35694  1.0000
  N   N17       1.0  0.81348  0.76512  0.35657  1.0000
  N   N18       1.0  0.76883  0.80611  0.35596  1.0000
  C   C142      1.0  0.20039  0.01013  0.35735  1.0000
  N   N19       1.0  0.20172  0.98936  0.35656  1.0000
  C   C143      1.0  0.22323  0.98953  0.35588  1.0000
  N   N20       1.0  0.24386  0.01157  0.35597  1.0000
  C   C144      1.0  0.24391  0.03297  0.35673  1.0000
  N   N21       1.0  0.22184  0.03178  0.35727  1.0000
  N   N22       1.0  0.17814  0.00785  0.35697  1.0000
  N   N23       1.0  0.26493  0.05434  0.35624  1.0000
  N   N24       1.0  0.22383  0.96870  0.35595  1.0000
  C   C145      1.0  0.17777  0.41559  0.35600  1.0000
  N   N25       1.0  0.20208  0.42392  0.35450  1.0000
  C   C146      1.0  0.21879  0.44805  0.35548  1.0000
  N   N26       1.0  0.21053  0.46409  0.35748  1.0000
  C   C147      1.0  0.18639  0.45662  0.35883  1.0000
  N   N27       1.0  0.17039  0.43235  0.35847  1.0000
  N   N28       1.0  0.16236  0.39158  0.35618  1.0000
  N   N29       1.0  0.17769  0.47182  0.36247  1.0000
  N   N30       1.0  0.24237  0.45492  0.35250  1.0000
  C   C148      1.0  0.61441  0.76818  0.35600  1.0000
  N   N31       1.0  0.60608  0.78417  0.35450  1.0000
  C   C149      1.0  0.58195  0.77675  0.35548  1.0000
  N   N32       1.0  0.56590  0.75244  0.35748  1.0000
  C   C150      1.0  0.57338  0.73578  0.35884  1.0000
  N   N33       1.0  0.59764  0.74404  0.35847  1.0000
  N   N34       1.0  0.63841  0.77678  0.35617  1.0000
  N   N35       1.0  0.55818  0.71188  0.36247  1.0000
  N   N36       1.0  0.57508  0.79345  0.35249  1.0000
  C   C151      1.0  0.26182  0.85224  0.35602  1.0000
  N   N37       1.0  0.24583  0.82792  0.35450  1.0000
  C   C152      1.0  0.25325  0.81121  0.35546  1.0000
  N   N38       1.0  0.27756  0.81947  0.35748  1.0000
  C   C153      1.0  0.29422  0.84361  0.35884  1.0000
  N   N39       1.0  0.28596  0.85962  0.35848  1.0000
  N   N40       1.0  0.25322  0.86765  0.35619  1.0000
  N   N41       1.0  0.31812  0.85231  0.36247  1.0000
  N   N42       1.0  0.23655  0.78763  0.35248  1.0000
  N   N43       1.0  0.42894  0.19557  0.36004  1.0000
  C   C154      1.0  0.45310  0.21219  0.35950  1.0000
  N   N44       1.0  0.46903  0.20378  0.35780  1.0000
  C   C155      1.0  0.46145  0.17962  0.35636  1.0000
  N   N45       1.0  0.43713  0.16370  0.35630  1.0000
  N   N46       1.0  0.39638  0.15596  0.35780  1.0000
  N   N47       1.0  0.47666  0.17090  0.35292  1.0000
  N   N48       1.0  0.46014  0.23583  0.36252  1.0000
  N   N49       1.0  0.79061  0.60105  0.36002  1.0000
  C   C156      1.0  0.78309  0.57689  0.35946  1.0000
  N   N50       1.0  0.75875  0.56096  0.35776  1.0000
  C   C157      1.0  0.74216  0.56854  0.35634  1.0000
  N   N51       1.0  0.75056  0.59285  0.35626  1.0000
  N   N52       1.0  0.78356  0.63360  0.35780  1.0000
  N   N53       1.0  0.71822  0.55332  0.35288  1.0000
  N   N54       1.0  0.79969  0.56985  0.36248  1.0000
  N   N55       1.0  0.83443  0.23937  0.36006  1.0000
  C   C158      1.0  0.81780  0.24691  0.35951  1.0000
  N   N56       1.0  0.82622  0.27124  0.35783  1.0000
  C   C159      1.0  0.85038  0.28783  0.35641  1.0000
  N   N57       1.0  0.86630  0.27943  0.35634  1.0000
  N   N58       1.0  0.87404  0.24642  0.35781  1.0000
  N   N59       1.0  0.85910  0.31177  0.35296  1.0000
  N   N60       1.0  0.79417  0.23031  0.36252  1.0000
  N   N61       1.0  0.15839  0.61312  0.35876  1.0000
  C   C160      1.0  0.14333  0.58865  0.35984  1.0000
  N   N62       1.0  0.11901  0.58013  0.36002  1.0000
  C   C161      1.0  0.10954  0.59516  0.35882  1.0000
  N   N63       1.0  0.12526  0.61950  0.35745  1.0000
  N   N64       1.0  0.16585  0.65265  0.35481  1.0000
  N   N65       1.0  0.08565  0.58686  0.35805  1.0000
  N   N66       1.0  0.15276  0.57403  0.36265  1.0000
  N   N67       1.0  0.41689  0.55129  0.35875  1.0000
  C   C162      1.0  0.44136  0.56069  0.35983  1.0000
  N   N68       1.0  0.44987  0.54488  0.36002  1.0000
  C   C163      1.0  0.43484  0.52038  0.35882  1.0000
  N   N69       1.0  0.41050  0.51177  0.35744  1.0000
  N   N70       1.0  0.37736  0.51921  0.35483  1.0000
  N   N71       1.0  0.44314  0.50479  0.35806  1.0000
  N   N72       1.0  0.45598  0.58474  0.36265  1.0000
  N   N73       1.0  0.47872  0.87161  0.35881  1.0000
  C   C164      1.0  0.46931  0.88667  0.35983  1.0000
  N   N74       1.0  0.48512  0.91099  0.35999  1.0000
  C   C165      1.0  0.50961  0.92046  0.35880  1.0000
  N   N75       1.0  0.51823  0.90474  0.35748  1.0000
  N   N76       1.0  0.51080  0.86416  0.35499  1.0000
  N   N77       1.0  0.52520  0.94435  0.35803  1.0000
  N   N78       1.0  0.44526  0.87723  0.36265  1.0000
  C   C166      1.0  0.63508  0.14448  0.35896  1.0000
  N   N79       1.0  0.61926  0.15302  0.35751  1.0000
  C   C167      1.0  0.59478  0.13792  0.35654  1.0000
  N   N80       1.0  0.58633  0.11361  0.35670  1.0000
  C   C168      1.0  0.60138  0.10418  0.35841  1.0000
  N   N81       1.0  0.62572  0.11995  0.35959  1.0000
  N   N82       1.0  0.65887  0.16052  0.36141  1.0000
  N   N83       1.0  0.59313  0.08030  0.35825  1.0000
  N   N84       1.0  0.58005  0.14725  0.35344  1.0000
  C   C169      1.0  0.53338  0.39491  0.35896  1.0000
  N   N85       1.0  0.55774  0.41072  0.35745  1.0000
  C   C170      1.0  0.56714  0.43520  0.35646  1.0000
  N   N86       1.0  0.55128  0.44366  0.35667  1.0000
  C   C171      1.0  0.52679  0.42862  0.35841  1.0000
  N   N87       1.0  0.51821  0.40428  0.35961  1.0000
  N   N88       1.0  0.52562  0.37111  0.36133  1.0000
  N   N89       1.0  0.51117  0.43688  0.35827  1.0000
  N   N90       1.0  0.59119  0.44992  0.35331  1.0000
  C   C172      1.0  0.88552  0.49659  0.35901  1.0000
  N   N91       1.0  0.87698  0.47224  0.35756  1.0000
  C   C173      1.0  0.89208  0.46285  0.35656  1.0000
  N   N92       1.0  0.91639  0.47872  0.35671  1.0000
  C   C174      1.0  0.92582  0.50321  0.35841  1.0000
  N   N93       1.0  0.91005  0.51177  0.35961  1.0000
  N   N94       1.0  0.86948  0.50435  0.36144  1.0000
  N   N95       1.0  0.94970  0.51884  0.35825  1.0000
  N   N96       1.0  0.88275  0.43880  0.35348  1.0000
  C   C175      1.0  0.01259  0.08905  0.35619  1.0000
  C   C176      1.0  0.00491  0.09697  0.43278  1.0000
  C   C177      1.0  0.00465  0.11894  0.43257  1.0000
  H   H133      1.0  0.99774  0.12295  0.48885  1.0000
  H   H134      1.0  0.99813  0.08606  0.48914  1.0000
  C   C178      1.0  0.00712  0.06460  0.35704  1.0000
  H   H135      1.0  0.98961  0.05212  0.35699  1.0000
  C   C179      1.0  0.94093  0.92955  0.35613  1.0000
  C   C180      1.0  0.93300  0.91394  0.43272  1.0000
  C   C181      1.0  0.91102  0.89172  0.43250  1.0000
  H   H136      1.0  0.90703  0.88078  0.48869  1.0000
  H   H137      1.0  0.94394  0.91803  0.48899  1.0000
  C   C182      1.0  0.96538  0.94851  0.35699  1.0000
  H   H138      1.0  0.97786  0.94347  0.35690  1.0000
  C   C183      1.0  0.10046  0.01741  0.35619  1.0000
  C   C184      1.0  0.11607  0.02510  0.43277  1.0000
  C   C185      1.0  0.13831  0.02538  0.43257  1.0000
  H   H139      1.0  0.14923  0.03229  0.48884  1.0000
  H   H140      1.0  0.11193  0.03187  0.48912  1.0000
  C   C186      1.0  0.08148  0.02287  0.35701  1.0000
  H   H141      1.0  0.08651  0.04038  0.35692  1.0000
  C   C187      1.0  0.08674  0.30435  0.35921  1.0000
  C   C188      1.0  0.10089  0.31475  0.43983  1.0000
  C   C189      1.0  0.12001  0.33975  0.44016  1.0000
  C   C190      1.0  0.09518  0.29997  0.52542  1.0000
  H   H142      1.0  0.08069  0.28126  0.51810  1.0000
  H   H143      1.0  0.08968  0.30808  0.57915  1.0000
  H   H144      1.0  0.11115  0.29930  0.54796  1.0000
  C   C191      1.0  0.13407  0.35074  0.52605  1.0000
  H   H145      1.0  0.14821  0.36963  0.51945  1.0000
  H   H146      1.0  0.14301  0.34079  0.54794  1.0000
  H   H147      1.0  0.12189  0.34997  0.57997  1.0000
  C   C192      1.0  0.06433  0.28278  0.35838  1.0000
  H   H148      1.0  0.04977  0.28472  0.36031  1.0000
  C   C193      1.0  0.72559  0.78825  0.35920  1.0000
  C   C194      1.0  0.71524  0.79207  0.43981  1.0000
  C   C195      1.0  0.69025  0.78623  0.44014  1.0000
  C   C196      1.0  0.73002  0.80114  0.52539  1.0000
  H   H149      1.0  0.74872  0.80531  0.51810  1.0000
  H   H150      1.0  0.72189  0.78755  0.57919  1.0000
  H   H151      1.0  0.73074  0.81781  0.54780  1.0000
  C   C197      1.0  0.67928  0.78935  0.52601  1.0000
  H   H152      1.0  0.66041  0.78464  0.51939  1.0000
  H   H153      1.0  0.68926  0.80824  0.54787  1.0000
  H   H154      1.0  0.68003  0.77793  0.57995  1.0000
  C   C198      1.0  0.74719  0.78747  0.35836  1.0000
  H   H155      1.0  0.74529  0.77099  0.36026  1.0000
  C   C199      1.0  0.24160  0.94326  0.35920  1.0000
  C   C200      1.0  0.23785  0.92912  0.43981  1.0000
  C   C201      1.0  0.24373  0.90999  0.44016  1.0000
  C   C202      1.0  0.22878  0.93482  0.52541  1.0000
  H   H156      1.0  0.22456  0.94931  0.51807  1.0000
  H   H157      1.0  0.24239  0.94033  0.57914  1.0000
  H   H158      1.0  0.21214  0.91885  0.54794  1.0000
  C   C203      1.0  0.24066  0.89593  0.52605  1.0000
  H   H159      1.0  0.24541  0.88179  0.51945  1.0000
  H   H160      1.0  0.22177  0.88699  0.54794  1.0000
  H   H161      1.0  0.25206  0.90811  0.57997  1.0000
  C   C204      1.0  0.24244  0.96567  0.35836  1.0000
  H   H162      1.0  0.25894  0.98023  0.36030  1.0000
  C   C205      1.0  0.35872  0.11869  0.35394  1.0000
  C   C206      1.0  0.34749  0.10498  0.43311  1.0000
  C   C207      1.0  0.32309  0.08648  0.43294  1.0000
  H   H163      1.0  0.31646  0.07609  0.49062  1.0000
  H   H164      1.0  0.35746  0.10729  0.49102  1.0000
  C   C208      1.0  0.38412  0.13256  0.35542  1.0000
  H   H165      1.0  0.39303  0.12343  0.35419  1.0000
  C   C209      1.0  0.78395  0.67126  0.35394  1.0000
  C   C210      1.0  0.78147  0.68246  0.43317  1.0000
  C   C211      1.0  0.78740  0.70688  0.43314  1.0000
  H   H166      1.0  0.78357  0.71347  0.49079  1.0000
  H   H167      1.0  0.77370  0.67245  0.49091  1.0000
  C   C212      1.0  0.77241  0.64586  0.35529  1.0000
  H   H168      1.0  0.75438  0.63695  0.35387  1.0000
  C   C213      1.0  0.91131  0.24603  0.35396  1.0000
  C   C214      1.0  0.92502  0.24850  0.43312  1.0000
  C   C215      1.0  0.94352  0.24260  0.43294  1.0000
  H   H169      1.0  0.95391  0.24636  0.49062  1.0000
  H   H170      1.0  0.92271  0.25616  0.49105  1.0000
  C   C216      1.0  0.89745  0.25757  0.35547  1.0000
  H   H171      1.0  0.90657  0.27560  0.35428  1.0000
  C   C217      1.0  0.28497  0.48023  0.34985  1.0000
  C   C218      1.0  0.29958  0.48935  0.42865  1.0000
  C   C219      1.0  0.32403  0.49546  0.42819  1.0000
  H   H172      1.0  0.33370  0.50155  0.48770  1.0000
  H   H173      1.0  0.29248  0.49158  0.48824  1.0000
  C   C220      1.0  0.26134  0.47624  0.35596  1.0000
  H   H174      1.0  0.25938  0.49072  0.36277  1.0000
  C   C221      1.0  0.54977  0.81075  0.34985  1.0000
  C   C222      1.0  0.54065  0.81623  0.42865  1.0000
  C   C223      1.0  0.53455  0.83457  0.42822  1.0000
  H   H175      1.0  0.52844  0.83813  0.48772  1.0000
  H   H176      1.0  0.53840  0.80688  0.48821  1.0000
  C   C224      1.0  0.55375  0.79110  0.35594  1.0000
  H   H177      1.0  0.53928  0.77468  0.36275  1.0000
  C   C225      1.0  0.21926  0.74504  0.34985  1.0000
  C   C226      1.0  0.21376  0.73043  0.42865  1.0000
  C   C227      1.0  0.19542  0.70598  0.42819  1.0000
  H   H178      1.0  0.19185  0.69631  0.48770  1.0000
  H   H179      1.0  0.22309  0.73753  0.48824  1.0000
  C   C228      1.0  0.23890  0.76867  0.35595  1.0000
  H   H180      1.0  0.25532  0.77062  0.36277  1.0000
  C   C229      1.0  0.49921  0.32876  0.36669  1.0000
  C   C230      1.0  0.49001  0.31450  0.44781  1.0000
  C   C231      1.0  0.48357  0.28935  0.44741  1.0000
  C   C232      1.0  0.48734  0.32574  0.53384  1.0000
  H   H181      1.0  0.49284  0.34485  0.52769  1.0000
  H   H182      1.0  0.49845  0.32448  0.58782  1.0000
  H   H183      1.0  0.46842  0.31629  0.55552  1.0000
  C   C233      1.0  0.47486  0.27482  0.53373  1.0000
  H   H184      1.0  0.47085  0.25616  0.52745  1.0000
  H   H185      1.0  0.45826  0.27416  0.55696  1.0000
  H   H186      1.0  0.48866  0.28314  0.58670  1.0000
  C   C234      1.0  0.50397  0.35263  0.35933  1.0000
  H   H187      1.0  0.48980  0.35519  0.35648  1.0000
  C   C235      1.0  0.85352  0.53074  0.36672  1.0000
  C   C236      1.0  0.84846  0.53995  0.44781  1.0000
  C   C237      1.0  0.82976  0.54640  0.44740  1.0000
  C   C238      1.0  0.86236  0.54261  0.53385  1.0000
  H   H188      1.0  0.87595  0.53709  0.52771  1.0000
  H   H189      1.0  0.84998  0.53150  0.58783  1.0000
  H   H190      1.0  0.87184  0.56153  0.55553  1.0000
  C   C239      1.0  0.82394  0.55511  0.53371  1.0000
  H   H191      1.0  0.80929  0.55913  0.52741  1.0000
  H   H192      1.0  0.83987  0.57169  0.55698  1.0000
  H   H193      1.0  0.81844  0.54130  0.58666  1.0000
  C   C240      1.0  0.87263  0.52599  0.35931  1.0000
  H   H194      1.0  0.88934  0.54016  0.35621  1.0000
  C   C241      1.0  0.70122  0.17647  0.36669  1.0000
  C   C242      1.0  0.71549  0.18153  0.44780  1.0000
  C   C243      1.0  0.74064  0.20022  0.44741  1.0000
  C   C244      1.0  0.70425  0.16762  0.53383  1.0000
  H   H195      1.0  0.68514  0.15402  0.52769  1.0000
  H   H196      1.0  0.70551  0.17999  0.58782  1.0000
  H   H197      1.0  0.71369  0.15815  0.55551  1.0000
  C   C245      1.0  0.75517  0.20604  0.53373  1.0000
  H   H198      1.0  0.77384  0.22069  0.52744  1.0000
  H   H199      1.0  0.75583  0.19011  0.55697  1.0000
  H   H200      1.0  0.74686  0.21153  0.58669  1.0000
  C   C246      1.0  0.67735  0.15736  0.35931  1.0000
  H   H201      1.0  0.67481  0.14065  0.35623  1.0000
  C   C247      1.0  0.15443  0.53790  0.36793  1.0000
  C   C248      1.0  0.15404  0.52511  0.44879  1.0000
  C   C249      1.0  0.16535  0.51039  0.44878  1.0000
  C   C250      1.0  0.14213  0.52719  0.53401  1.0000
  H   H202      1.0  0.13427  0.53887  0.52758  1.0000
  H   H203      1.0  0.15535  0.53467  0.58923  1.0000
  H   H204      1.0  0.12748  0.50932  0.55408  1.0000
  C   C251      1.0  0.16568  0.49777  0.53475  1.0000
  H   H205      1.0  0.17506  0.48749  0.52884  1.0000
  H   H206      1.0  0.14717  0.48505  0.55615  1.0000
  H   H207      1.0  0.17483  0.51103  0.58888  1.0000
  C   C252      1.0  0.14203  0.55068  0.35981  1.0000
  H   H208      1.0  0.12405  0.54100  0.35570  1.0000
  C   C253      1.0  0.49214  0.62253  0.36789  1.0000
  C   C254      1.0  0.50491  0.63493  0.44878  1.0000
  C   C255      1.0  0.51962  0.66095  0.44878  1.0000
  C   C256      1.0  0.50285  0.62094  0.53399  1.0000
  H   H209      1.0  0.49118  0.60140  0.52756  1.0000
  H   H210      1.0  0.49536  0.62667  0.58921  1.0000
  H   H211      1.0  0.52072  0.62417  0.55405  1.0000
  C   C257      1.0  0.53225  0.67391  0.53475  1.0000
  H   H212      1.0  0.54251  0.69357  0.52884  1.0000
  H   H213      1.0  0.54497  0.66813  0.55611  1.0000
  H   H214      1.0  0.51899  0.66979  0.58889  1.0000
  C   C258      1.0  0.47933  0.59735  0.35985  1.0000
  H   H215      1.0  0.48900  0.58904  0.35574  1.0000
  C   C259      1.0  0.40746  0.87557  0.36792  1.0000
  C   C260      1.0  0.39507  0.87596  0.44878  1.0000
  C   C261      1.0  0.36904  0.86465  0.44878  1.0000
  C   C262      1.0  0.40906  0.88787  0.53400  1.0000
  H   H216      1.0  0.42860  0.89573  0.52757  1.0000
  H   H217      1.0  0.40332  0.87465  0.58922  1.0000
  H   H218      1.0  0.40584  0.90252  0.55408  1.0000
  C   C263      1.0  0.35608  0.86432  0.53476  1.0000
  H   H219      1.0  0.33643  0.85494  0.52885  1.0000
  H   H220      1.0  0.36189  0.88284  0.55615  1.0000
  H   H221      1.0  0.36020  0.85517  0.58888  1.0000
  C   C264      1.0  0.43264  0.88796  0.35980  1.0000
  H   H222      1.0  0.44094  0.90595  0.35567  1.0000
  C   C265      1.0  0.51312  0.16976  0.34878  1.0000
  C   C266      1.0  0.52618  0.17011  0.42725  1.0000
  C   C267      1.0  0.54099  0.15960  0.42699  1.0000
  H   H223      1.0  0.54964  0.15985  0.48634  1.0000
  H   H224      1.0  0.52492  0.17798  0.48651  1.0000
  C   C268      1.0  0.50004  0.18195  0.35479  1.0000
  H   H225      1.0  0.50942  0.19992  0.36052  1.0000
  C   C269      1.0  0.68063  0.51686  0.34875  1.0000
  C   C270      1.0  0.66792  0.50381  0.42721  1.0000
  C   C271      1.0  0.64261  0.48899  0.42693  1.0000
  H   H226      1.0  0.63420  0.48035  0.48630  1.0000
  H   H227      1.0  0.67704  0.50508  0.48650  1.0000
  C   C272      1.0  0.70591  0.52995  0.35478  1.0000
  H   H228      1.0  0.71449  0.52056  0.36055  1.0000
  C   C273      1.0  0.86024  0.34937  0.34880  1.0000
  C   C274      1.0  0.85989  0.36207  0.42727  1.0000
  C   C275      1.0  0.87040  0.38739  0.42701  1.0000
  H   H229      1.0  0.87015  0.39578  0.48637  1.0000
  H   H230      1.0  0.85203  0.35294  0.48654  1.0000
  C   C276      1.0  0.84805  0.32409  0.35482  1.0000
  H   H231      1.0  0.83009  0.31551  0.36055  1.0000
  C   C277      1.0  0.04364  0.55802  0.35342  1.0000
  C   C278      1.0  0.03028  0.54650  0.43285  1.0000
  C   C279      1.0  0.00487  0.53380  0.43238  1.0000
  H   H232      1.0  0.99607  0.52434  0.49001  1.0000
  H   H233      1.0  0.03892  0.54575  0.49080  1.0000
  C   C280      1.0  0.06809  0.56473  0.35475  1.0000
  H   H234      1.0  0.07179  0.55129  0.35256  1.0000
  C   C281      1.0  0.47199  0.49163  0.35344  1.0000
  C   C282      1.0  0.48353  0.48982  0.43285  1.0000
  C   C283      1.0  0.49625  0.47712  0.43240  1.0000
  H   H235      1.0  0.50565  0.47773  0.49011  1.0000
  H   H236      1.0  0.48420  0.49913  0.49090  1.0000
  C   C284      1.0  0.46528  0.50937  0.35477  1.0000
  H   H237      1.0  0.47871  0.52651  0.35258  1.0000
  C   C285      1.0  0.53838  0.98636  0.35340  1.0000
  C   C286      1.0  0.54021  0.99972  0.43284  1.0000
  C   C287      1.0  0.55292  0.02513  0.43237  1.0000
  H   H238      1.0  0.55226  0.03393  0.49000  1.0000
  H   H239      1.0  0.53082  0.99108  0.49078  1.0000
  C   C288      1.0  0.52063  0.96191  0.35474  1.0000
  H   H240      1.0  0.50349  0.95821  0.35255  1.0000
