data_image0
_chemical_formula_structural       C8H2N2O4C2H2C2H2C2H2C2H2C2H2C2H2C8H2N2O4C8H2N2O4C8H2N2O4C8H2N2O4C2H2C2H2C2H2C2H2C8H2N2O4C8H2N2O4C2H2C2H2C2H2C2H2C8H2N2O4C8H2N2O4C2H2C2H2C2H2C2H2C8H2N2O4C8H2N2O4C2H2C2H2C2H2C2H2C2H2C2H2C8H2N2O4CNCNCNCNCNCNCNCNCNCNCNCNCNCNCNCNCNCNCNCNCNCNCNCNCNCNCNCNCNCNCNCNCNCNCNCNCNCNCNCNCNCNCNCNCNCNCNCNC2H2C2H2C8H2N2O4C8H2N2O4C8H2N2O4C2H2C2H2C2H2C2H2C2H2C2H2C2H2C2H2C8H2N2O4C8H2N2O4C2H2C2H2C2H2C2H2C8H2N2O4C8H2N2O4C2H2C2H2C2H2C2H2C8H2N2O4C8H2N2O4C2H2C2H2C2H2C2H2C8H2N2O4C8H2N2O4C8H2N2O4C2H2C2H2
_chemical_formula_sum              "C336 H144 N96 O96"
_cell_length_a       82.0632
_cell_length_b       42.31
_cell_length_c       14.8771
_cell_angle_alpha    90
_cell_angle_beta     90
_cell_angle_gamma    90

_space_group_name_H-M_alt    "P 1"
_space_group_IT_number       1

loop_
  _space_group_symop_operation_xyz
  'x, y, z'

loop_
  _atom_site_type_symbol
  _atom_site_label
  _atom_site_symmetry_multiplicity
  _atom_site_fract_x
  _atom_site_fract_y
  _atom_site_fract_z
  _atom_site_occupancy
  C   C1        1.0  0.52336  0.57995  0.33914  1.0000
  C   C2        1.0  0.50781  0.57469  0.29870  1.0000
  C   C3        1.0  0.50058  0.54427  0.30201  1.0000
  C   C4        1.0  0.50827  0.51846  0.34470  1.0000
  C   C5        1.0  0.50084  0.48775  0.34431  1.0000
  C   C6        1.0  0.50922  0.46062  0.31217  1.0000
  C   C7        1.0  0.50123  0.43094  0.31163  1.0000
  C   C8        1.0  0.48489  0.42705  0.34073  1.0000
  H   H1        1.0  0.50753  0.41195  0.28704  1.0000
  H   H2        1.0  0.48960  0.54087  0.27072  1.0000
  N   N1        1.0  0.52522  0.46359  0.27722  1.0000
  N   N2        1.0  0.49970  0.59938  0.25229  1.0000
  O   O1        1.0  0.52580  0.45630  0.19539  1.0000
  O   O2        1.0  0.48611  0.60559  0.28701  1.0000
  O   O3        1.0  0.53519  0.44666  0.31960  1.0000
  O   O4        1.0  0.49769  0.59308  0.17048  1.0000
  C   C9        1.0  0.98468  0.02406  0.29742  1.0000
  C   C10       1.0  0.97726  0.05407  0.30092  1.0000
  H   H3        1.0  0.97877  0.00623  0.26432  1.0000
  H   H4        1.0  0.96623  0.05692  0.26986  1.0000
  C   C11       1.0  0.03162  0.95432  0.31206  1.0000
  C   C12       1.0  0.02380  0.98399  0.30982  1.0000
  H   H5        1.0  0.04341  0.95281  0.29016  1.0000
  H   H6        1.0  0.03024  0.00301  0.28645  1.0000
  C   C13       1.0  0.38096  0.30010  0.34734  1.0000
  C   C14       1.0  0.36438  0.29150  0.34524  1.0000
  H   H7        1.0  0.38950  0.28252  0.35138  1.0000
  H   H8        1.0  0.36175  0.26788  0.34727  1.0000
  C   C15       1.0  0.43028  0.33238  0.28030  1.0000
  C   C16       1.0  0.41358  0.32508  0.28379  1.0000
  H   H9        1.0  0.43750  0.31995  0.23672  1.0000
  H   H10       1.0  0.40930  0.30779  0.24185  1.0000
  C   C17       1.0  0.62713  0.70539  0.30949  1.0000
  C   C18       1.0  0.64363  0.71456  0.30949  1.0000
  H   H11       1.0  0.61865  0.72092  0.28508  1.0000
  H   H12       1.0  0.64646  0.73623  0.28327  1.0000
  C   C19       1.0  0.57940  0.66109  0.26110  1.0000
  C   C20       1.0  0.59603  0.66928  0.26379  1.0000
  H   H13       1.0  0.57305  0.66437  0.20261  1.0000
  H   H14       1.0  0.60129  0.67778  0.20629  1.0000
  C   C21       1.0  0.15648  0.81421  0.34259  1.0000
  C   C22       1.0  0.15157  0.84661  0.34424  1.0000
  C   C23       1.0  0.13477  0.85479  0.34255  1.0000
  C   C24       1.0  0.12227  0.83192  0.33794  1.0000
  C   C25       1.0  0.10531  0.84078  0.33946  1.0000
  C   C26       1.0  0.09863  0.86502  0.28394  1.0000
  C   C27       1.0  0.08181  0.87286  0.29028  1.0000
  C   C28       1.0  0.07116  0.85648  0.34855  1.0000
  H   H15       1.0  0.07717  0.88977  0.24824  1.0000
  H   H16       1.0  0.13167  0.87815  0.34710  1.0000
  N   N3        1.0  0.10860  0.87995  0.21886  1.0000
  N   N4        1.0  0.16326  0.87118  0.34793  1.0000
  O   O5        1.0  0.10914  0.90937  0.23029  1.0000
  O   O6        1.0  0.16109  0.88871  0.41513  1.0000
  O   O7        1.0  0.10372  0.87443  0.14036  1.0000
  O   O8        1.0  0.16287  0.88792  0.27814  1.0000
  C   C29       1.0  0.85224  0.19453  0.33972  1.0000
  C   C30       1.0  0.85709  0.16438  0.30614  1.0000
  C   C31       1.0  0.87378  0.15551  0.30703  1.0000
  C   C32       1.0  0.88617  0.17584  0.33888  1.0000
  C   C33       1.0  0.90303  0.16637  0.33911  1.0000
  C   C34       1.0  0.91091  0.15333  0.26216  1.0000
  C   C35       1.0  0.92758  0.14439  0.26678  1.0000
  C   C36       1.0  0.93682  0.14877  0.34579  1.0000
  H   H17       1.0  0.93320  0.13594  0.21020  1.0000
  H   H18       1.0  0.87687  0.13349  0.28427  1.0000
  N   N5        1.0  0.90236  0.15123  0.17964  1.0000
  N   N6        1.0  0.84544  0.14364  0.26791  1.0000
  O   O9        1.0  0.90187  0.12332  0.15087  1.0000
  O   O10       1.0  0.84541  0.11714  0.30603  1.0000
  O   O11       1.0  0.90864  0.16853  0.12034  1.0000
  O   O12       1.0  0.84801  0.13952  0.18547  1.0000
  C   C37       1.0  0.54283  0.17753  0.34747  1.0000
  C   C38       1.0  0.54820  0.20411  0.29716  1.0000
  C   C39       1.0  0.53837  0.23173  0.29414  1.0000
  C   C40       1.0  0.52325  0.23340  0.33952  1.0000
  C   C41       1.0  0.51269  0.26003  0.33083  1.0000
  C   C42       1.0  0.49620  0.25684  0.30274  1.0000
  C   C43       1.0  0.48592  0.28375  0.30158  1.0000
  C   C44       1.0  0.49161  0.31405  0.32666  1.0000
  H   H19       1.0  0.47409  0.28091  0.28152  1.0000
  H   H20       1.0  0.54197  0.25024  0.25452  1.0000
  N   N7        1.0  0.49028  0.22701  0.27414  1.0000
  N   N8        1.0  0.56278  0.20208  0.24657  1.0000
  O   O13       1.0  0.48590  0.22766  0.19323  1.0000
  O   O14       1.0  0.57291  0.22259  0.27123  1.0000
  O   O15       1.0  0.47846  0.21794  0.32123  1.0000
  O   O16       1.0  0.56018  0.20535  0.16384  1.0000
  C   C45       1.0  0.46688  0.83071  0.35969  1.0000
  C   C46       1.0  0.46157  0.80443  0.30791  1.0000
  C   C47       1.0  0.47123  0.77657  0.30571  1.0000
  C   C48       1.0  0.48611  0.77440  0.35333  1.0000
  C   C49       1.0  0.49663  0.74772  0.34466  1.0000
  C   C50       1.0  0.51321  0.75090  0.31823  1.0000
  C   C51       1.0  0.52340  0.72385  0.31599  1.0000
  C   C52       1.0  0.51753  0.69341  0.33833  1.0000
  H   H21       1.0  0.53528  0.72668  0.29676  1.0000
  H   H22       1.0  0.46774  0.75832  0.26486  1.0000
  N   N9        1.0  0.51931  0.78087  0.29201  1.0000
  N   N10       1.0  0.44729  0.80706  0.25504  1.0000
  O   O17       1.0  0.52390  0.78081  0.21142  1.0000
  O   O18       1.0  0.43688  0.78678  0.27755  1.0000
  O   O19       1.0  0.53104  0.78941  0.34060  1.0000
  O   O20       1.0  0.45030  0.80396  0.17269  1.0000
  C   C53       1.0  0.98960  0.70749  0.28957  1.0000
  C   C54       1.0  0.98006  0.68003  0.28626  1.0000
  H   H23       1.0  0.00027  0.70806  0.25393  1.0000
  H   H24       1.0  0.98429  0.66141  0.24897  1.0000
  C   C55       1.0  0.99997  0.81681  0.33161  1.0000
  C   C56       1.0  0.98965  0.79031  0.32932  1.0000
  H   H25       1.0  0.99528  0.83811  0.31183  1.0000
  H   H26       1.0  0.97789  0.79328  0.30788  1.0000
  C   C57       1.0  0.01770  0.29997  0.27481  1.0000
  C   C58       1.0  0.02707  0.32766  0.27211  1.0000
  H   H27       1.0  0.00720  0.29903  0.23779  1.0000
  H   H28       1.0  0.02288  0.34607  0.23388  1.0000
  C   C59       1.0  0.00751  0.19074  0.32198  1.0000
  C   C60       1.0  0.01775  0.21737  0.31866  1.0000
  H   H29       1.0  0.01236  0.16935  0.30429  1.0000
  H   H30       1.0  0.02958  0.21440  0.29856  1.0000
  C   C61       1.0  0.31233  0.22730  0.33951  1.0000
  C   C62       1.0  0.29661  0.21338  0.35161  1.0000
  C   C63       1.0  0.29476  0.17991  0.35288  1.0000
  C   C64       1.0  0.30806  0.15903  0.34119  1.0000
  C   C65       1.0  0.30630  0.12510  0.34583  1.0000
  C   C66       1.0  0.29447  0.10766  0.29607  1.0000
  C   C67       1.0  0.29392  0.07404  0.30219  1.0000
  C   C68       1.0  0.30516  0.05682  0.35497  1.0000
  H   H31       1.0  0.28567  0.06197  0.26368  1.0000
  H   H32       1.0  0.28344  0.17069  0.36468  1.0000
  N   N11       1.0  0.28395  0.12395  0.23660  1.0000
  N   N12       1.0  0.28273  0.23282  0.36356  1.0000
  O   O21       1.0  0.26924  0.11935  0.25613  1.0000
  O   O22       1.0  0.27598  0.22823  0.43825  1.0000
  O   O23       1.0  0.28625  0.11577  0.15639  1.0000
  O   O24       1.0  0.27244  0.22870  0.30208  1.0000
  C   C69       1.0  0.69556  0.78097  0.33555  1.0000
  C   C70       1.0  0.71128  0.79468  0.34893  1.0000
  C   C71       1.0  0.71325  0.82813  0.34956  1.0000
  C   C72       1.0  0.70007  0.84914  0.33592  1.0000
  C   C73       1.0  0.70192  0.88304  0.34035  1.0000
  C   C74       1.0  0.71401  0.90023  0.29186  1.0000
  C   C75       1.0  0.71470  0.93383  0.29793  1.0000
  C   C76       1.0  0.70335  0.95128  0.34939  1.0000
  H   H33       1.0  0.72317  0.94573  0.26047  1.0000
  H   H34       1.0  0.72455  0.83724  0.36252  1.0000
  N   N13       1.0  0.72469  0.88372  0.23377  1.0000
  N   N14       1.0  0.72503  0.77509  0.36307  1.0000
  O   O25       1.0  0.73934  0.88808  0.25503  1.0000
  O   O26       1.0  0.73152  0.77985  0.43837  1.0000
  O   O27       1.0  0.72275  0.89187  0.15326  1.0000
  O   O28       1.0  0.73557  0.77883  0.30267  1.0000
  C   C77       1.0  0.18472  0.67304  0.35610  1.0000
  C   C78       1.0  0.18265  0.70608  0.35667  1.0000
  H   H35       1.0  0.17468  0.65913  0.36602  1.0000
  H   H36       1.0  0.17109  0.71439  0.36688  1.0000
  C   C79       1.0  0.19157  0.57449  0.27945  1.0000
  C   C80       1.0  0.19110  0.60769  0.28321  1.0000
  H   H37       1.0  0.18329  0.56328  0.23912  1.0000
  H   H38       1.0  0.18253  0.61909  0.24519  1.0000
  C   C81       1.0  0.82367  0.33532  0.36192  1.0000
  C   C82       1.0  0.82585  0.30232  0.36179  1.0000
  H   H39       1.0  0.83363  0.34933  0.37316  1.0000
  H   H40       1.0  0.83740  0.29411  0.37289  1.0000
  C   C83       1.0  0.81673  0.43390  0.28583  1.0000
  C   C84       1.0  0.81733  0.40072  0.28940  1.0000
  H   H41       1.0  0.82509  0.44529  0.24637  1.0000
  H   H42       1.0  0.82608  0.38949  0.25216  1.0000
  C   C85       1.0  0.29329  0.33764  0.33216  1.0000
  C   C86       1.0  0.29392  0.36536  0.27781  1.0000
  C   C87       1.0  0.28093  0.38753  0.28042  1.0000
  C   C88       1.0  0.26725  0.38311  0.33640  1.0000
  C   C89       1.0  0.25403  0.40503  0.33424  1.0000
  C   C90       1.0  0.24017  0.39951  0.27956  1.0000
  C   C91       1.0  0.22724  0.42177  0.27933  1.0000
  C   C92       1.0  0.22782  0.45008  0.33026  1.0000
  H   H43       1.0  0.21736  0.41728  0.23938  1.0000
  H   H44       1.0  0.28140  0.40702  0.23968  1.0000
  N   N15       1.0  0.23969  0.37223  0.22441  1.0000
  N   N16       1.0  0.30701  0.36981  0.21714  1.0000
  O   O29       1.0  0.23921  0.37956  0.14258  1.0000
  O   O30       1.0  0.31364  0.39630  0.22804  1.0000
  O   O31       1.0  0.22761  0.35510  0.24222  1.0000
  O   O32       1.0  0.30220  0.36805  0.13711  1.0000
  C   C93       1.0  0.71407  0.67000  0.33398  1.0000
  C   C94       1.0  0.71238  0.64023  0.28987  1.0000
  C   C95       1.0  0.72524  0.61778  0.29313  1.0000
  C   C96       1.0  0.73989  0.62400  0.33937  1.0000
  C   C97       1.0  0.75300  0.60184  0.33678  1.0000
  C   C98       1.0  0.76551  0.60431  0.27133  1.0000
  C   C99       1.0  0.77850  0.58220  0.27176  1.0000
  C   C100      1.0  0.77917  0.55687  0.33388  1.0000
  H   H45       1.0  0.78749  0.58452  0.22448  1.0000
  H   H46       1.0  0.72395  0.59677  0.25969  1.0000
  N   N17       1.0  0.76460  0.62847  0.20559  1.0000
  N   N18       1.0  0.69826  0.63368  0.23830  1.0000
  O   O33       1.0  0.76332  0.61698  0.12799  1.0000
  O   O34       1.0  0.69128  0.60888  0.26419  1.0000
  O   O35       1.0  0.77687  0.64618  0.20780  1.0000
  O   O36       1.0  0.70163  0.63082  0.15629  1.0000
  C   C101      1.0  0.24206  0.85439  0.29843  1.0000
  C   C102      1.0  0.22921  0.83225  0.30051  1.0000
  H   H47       1.0  0.25214  0.84960  0.26033  1.0000
  H   H48       1.0  0.23032  0.81220  0.26252  1.0000
  C   C103      1.0  0.26590  0.95646  0.30744  1.0000
  C   C104      1.0  0.25306  0.93427  0.30502  1.0000
  H   H49       1.0  0.26461  0.97722  0.27287  1.0000
  H   H50       1.0  0.24274  0.93972  0.26965  1.0000
  C   C105      1.0  0.76645  0.15416  0.30459  1.0000
  C   C106      1.0  0.77916  0.17657  0.30692  1.0000
  H   H51       1.0  0.75577  0.15991  0.27311  1.0000
  H   H52       1.0  0.77733  0.19778  0.27548  1.0000
  C   C107      1.0  0.74253  0.05277  0.29303  1.0000
  C   C108      1.0  0.75535  0.07501  0.29098  1.0000
  H   H53       1.0  0.74288  0.03398  0.24975  1.0000
  H   H54       1.0  0.76480  0.07150  0.24715  1.0000
  C   C109      1.0  0.16942  0.46369  0.31427  1.0000
  C   C110      1.0  0.15592  0.47982  0.27522  1.0000
  C   C111      1.0  0.14020  0.46601  0.27841  1.0000
  C   C112      1.0  0.13731  0.43650  0.32003  1.0000
  C   C113      1.0  0.12104  0.42477  0.32938  1.0000
  C   C114      1.0  0.11604  0.39440  0.29902  1.0000
  C   C115      1.0  0.09942  0.38529  0.30673  1.0000
  C   C116      1.0  0.08748  0.40576  0.34316  1.0000
  H   H55       1.0  0.09597  0.36375  0.28194  1.0000
  H   H56       1.0  0.13064  0.47805  0.25038  1.0000
  N   N19       1.0  0.12757  0.37424  0.25751  1.0000
  N   N20       1.0  0.15812  0.50940  0.23217  1.0000
  O   O37       1.0  0.12383  0.36852  0.17723  1.0000
  O   O38       1.0  0.15000  0.53088  0.26965  1.0000
  O   O39       1.0  0.12885  0.34850  0.29904  1.0000
  O   O40       1.0  0.15434  0.50832  0.15038  1.0000
  C   C117      1.0  0.83757  0.54576  0.31835  1.0000
  C   C118      1.0  0.85096  0.53112  0.27388  1.0000
  C   C119      1.0  0.86662  0.54520  0.27804  1.0000
  C   C120      1.0  0.86929  0.57365  0.32513  1.0000
  C   C121      1.0  0.88531  0.58586  0.33430  1.0000
  C   C122      1.0  0.89167  0.60918  0.27537  1.0000
  C   C123      1.0  0.90812  0.61898  0.28495  1.0000
  C   C124      1.0  0.91850  0.60517  0.34985  1.0000
  H   H57       1.0  0.91277  0.63507  0.24039  1.0000
  H   H58       1.0  0.87622  0.53427  0.24688  1.0000
  N   N21       1.0  0.88163  0.62108  0.20577  1.0000
  N   N22       1.0  0.84860  0.50303  0.22373  1.0000
  O   O41       1.0  0.88732  0.61425  0.12976  1.0000
  O   O42       1.0  0.85714  0.48066  0.25327  1.0000
  O   O43       1.0  0.88010  0.65055  0.21101  1.0000
  O   O44       1.0  0.85179  0.50702  0.14189  1.0000
  C   C125      1.0  0.35755  0.92041  0.32651  1.0000
  C   C126      1.0  0.34182  0.93368  0.32994  1.0000
  H   H59       1.0  0.35914  0.89935  0.29386  1.0000
  H   H60       1.0  0.33255  0.92156  0.29957  1.0000
  C   C127      1.0  0.41551  0.93537  0.30792  1.0000
  C   C128      1.0  0.39915  0.94466  0.31437  1.0000
  H   H61       1.0  0.42354  0.95100  0.27970  1.0000
  H   H62       1.0  0.39598  0.96650  0.29038  1.0000
  C   C129      1.0  0.65223  0.08851  0.31679  1.0000
  C   C130      1.0  0.66784  0.07479  0.32052  1.0000
  H   H63       1.0  0.65062  0.10904  0.28150  1.0000
  H   H64       1.0  0.67710  0.08585  0.28684  1.0000
  C   C131      1.0  0.59622  0.08174  0.27617  1.0000
  C   C132      1.0  0.61258  0.07237  0.28329  1.0000
  H   H65       1.0  0.58905  0.07094  0.22900  1.0000
  H   H66       1.0  0.61681  0.05499  0.24146  1.0000
  C   C133      1.0  0.02376  0.49537  0.32580  1.0000
  C   C134      1.0  0.03508  0.47051  0.32287  1.0000
  H   H67       1.0  0.02651  0.51602  0.29334  1.0000
  H   H68       1.0  0.04569  0.47397  0.28805  1.0000
  C   C135      1.0  0.96952  0.53588  0.34220  1.0000
  C   C136      1.0  0.98113  0.51148  0.34325  1.0000
  H   H69       1.0  0.95817  0.53113  0.31708  1.0000
  H   H70       1.0  0.97779  0.48975  0.31927  1.0000
  C   C137      1.0  0.47673  0.94085  0.32052  1.0000
  C   C138      1.0  0.49188  0.93686  0.27536  1.0000
  C   C139      1.0  0.50302  0.96238  0.27174  1.0000
  C   C140      1.0  0.49953  0.99175  0.31246  1.0000
  C   C141      1.0  0.51102  0.01695  0.30970  1.0000
  C   C142      1.0  0.50675  0.04755  0.27829  1.0000
  C   C143      1.0  0.51850  0.07201  0.28114  1.0000
  C   C144      1.0  0.53451  0.06678  0.31323  1.0000
  H   H71       1.0  0.51520  0.09396  0.25858  1.0000
  H   H72       1.0  0.51379  0.95942  0.23802  1.0000
  N   N23       1.0  0.49101  0.05318  0.24254  1.0000
  N   N24       1.0  0.49564  0.90791  0.23212  1.0000
  O   O45       1.0  0.49168  0.06118  0.16129  1.0000
  O   O46       1.0  0.50818  0.89533  0.26489  1.0000
  O   O47       1.0  0.48360  0.07431  0.28566  1.0000
  O   O48       1.0  0.49766  0.91143  0.14898  1.0000
  C   C145      1.0  0.45412  0.36243  0.33387  1.0000
  N   N25       1.0  0.46078  0.39197  0.34009  1.0000
  C   C146      1.0  0.47727  0.39662  0.33887  1.0000
  N   N26       1.0  0.48685  0.37047  0.33385  1.0000
  C   C147      1.0  0.48092  0.34062  0.32875  1.0000
  N   N27       1.0  0.46445  0.33737  0.32823  1.0000
  C   C148      1.0  0.55450  0.64365  0.33750  1.0000
  N   N28       1.0  0.54765  0.61428  0.34006  1.0000
  C   C149      1.0  0.53112  0.61028  0.33959  1.0000
  N   N29       1.0  0.52182  0.63685  0.33951  1.0000
  C   C150      1.0  0.52804  0.66656  0.33760  1.0000
  N   N30       1.0  0.54455  0.66930  0.33595  1.0000
  C   C151      1.0  0.05406  0.86234  0.34892  1.0000
  N   N31       1.0  0.04741  0.89188  0.34261  1.0000
  C   C152      1.0  0.03092  0.89655  0.34386  1.0000
  N   N32       1.0  0.02133  0.87041  0.34899  1.0000
  C   C153      1.0  0.02725  0.84056  0.35420  1.0000
  N   N33       1.0  0.04372  0.83729  0.35469  1.0000
  C   C154      1.0  0.95387  0.14375  0.34579  1.0000
  N   N34       1.0  0.96071  0.11438  0.34268  1.0000
  C   C155      1.0  0.97724  0.11036  0.34314  1.0000
  N   N35       1.0  0.98655  0.13691  0.34366  1.0000
  C   C156      1.0  0.98035  0.16662  0.34607  1.0000
  N   N36       1.0  0.96384  0.16938  0.34782  1.0000
  C   C157      1.0  0.31537  0.26101  0.33888  1.0000
  N   N37       1.0  0.30328  0.28317  0.33663  1.0000
  C   C158      1.0  0.30621  0.31489  0.33406  1.0000
  N   N38       1.0  0.32207  0.32429  0.33521  1.0000
  C   C159      1.0  0.33490  0.30388  0.33844  1.0000
  N   N39       1.0  0.33091  0.27257  0.33985  1.0000
  C   C160      1.0  0.69236  0.74733  0.33657  1.0000
  N   N40       1.0  0.70435  0.72492  0.33531  1.0000
  C   C161      1.0  0.70131  0.69319  0.33527  1.0000
  N   N41       1.0  0.68540  0.68417  0.33819  1.0000
  C   C162      1.0  0.67275  0.70491  0.34047  1.0000
  N   N42       1.0  0.67675  0.73617  0.33896  1.0000
  C   C163      1.0  0.19282  0.76102  0.34510  1.0000
  N   N43       1.0  0.20490  0.78319  0.34751  1.0000
  C   C164      1.0  0.20197  0.81492  0.34988  1.0000
  N   N44       1.0  0.18609  0.82428  0.34835  1.0000
  C   C165      1.0  0.17327  0.80385  0.34505  1.0000
  N   N45       1.0  0.17728  0.77255  0.34382  1.0000
  C   C166      1.0  0.81594  0.24733  0.34657  1.0000
  N   N46       1.0  0.80396  0.22492  0.34819  1.0000
  C   C167      1.0  0.80700  0.19319  0.34827  1.0000
  N   N47       1.0  0.82291  0.18418  0.34503  1.0000
  C   C168      1.0  0.83556  0.20493  0.34240  1.0000
  N   N48       1.0  0.83155  0.23618  0.34388  1.0000
  C   C169      1.0  0.04851  0.36139  0.33207  1.0000
  N   N49       1.0  0.06481  0.36771  0.33359  1.0000
  C   C170      1.0  0.07056  0.39783  0.34419  1.0000
  N   N50       1.0  0.05937  0.42138  0.35362  1.0000
  C   C171      1.0  0.04308  0.41607  0.35413  1.0000
  N   N51       1.0  0.03806  0.38593  0.34277  1.0000
  C   C172      1.0  0.95791  0.64720  0.34246  1.0000
  N   N52       1.0  0.94152  0.64181  0.34201  1.0000
  C   C173      1.0  0.93542  0.61199  0.35194  1.0000
  N   N53       1.0  0.94607  0.58757  0.36160  1.0000
  C   C174      1.0  0.96244  0.59203  0.36297  1.0000
  N   N54       1.0  0.96793  0.62200  0.35335  1.0000
  C   C175      1.0  0.45983  0.86127  0.35149  1.0000
  N   N55       1.0  0.44352  0.86757  0.34994  1.0000
  C   C176      1.0  0.43778  0.89769  0.33927  1.0000
  N   N56       1.0  0.44896  0.92124  0.32983  1.0000
  C   C177      1.0  0.46525  0.91595  0.32937  1.0000
  N   N57       1.0  0.47028  0.88581  0.34079  1.0000
  C   C178      1.0  0.55028  0.14728  0.34078  1.0000
  N   N58       1.0  0.56667  0.14189  0.34125  1.0000
  C   C179      1.0  0.57277  0.11206  0.33139  1.0000
  N   N59       1.0  0.56212  0.08765  0.32184  1.0000
  C   C180      1.0  0.54575  0.09211  0.32050  1.0000
  N   N60       1.0  0.54026  0.12208  0.33002  1.0000
  C   C181      1.0  0.20247  0.52301  0.32917  1.0000
  N   N61       1.0  0.21577  0.50359  0.33434  1.0000
  C   C182      1.0  0.21429  0.47137  0.33019  1.0000
  N   N62       1.0  0.19901  0.45909  0.32282  1.0000
  C   C183      1.0  0.18537  0.47723  0.31876  1.0000
  N   N63       1.0  0.18762  0.50899  0.32189  1.0000
  C   C184      1.0  0.80527  0.48514  0.33395  1.0000
  N   N64       1.0  0.79175  0.50399  0.33927  1.0000
  C   C185      1.0  0.79290  0.53622  0.33471  1.0000
  N   N65       1.0  0.80799  0.54926  0.32668  1.0000
  C   C186      1.0  0.82179  0.53160  0.32254  1.0000
  N   N66       1.0  0.81997  0.49975  0.32607  1.0000
  C   C187      1.0  0.30585  0.02301  0.35493  1.0000
  N   N67       1.0  0.29257  0.00351  0.34989  1.0000
  C   C188      1.0  0.29408  0.97128  0.35369  1.0000
  N   N68       1.0  0.30940  0.95913  0.36050  1.0000
  C   C189      1.0  0.32301  0.97732  0.36450  1.0000
  N   N69       1.0  0.32073  0.00907  0.36177  1.0000
  C   C190      1.0  0.70296  0.98511  0.34991  1.0000
  N   N70       1.0  0.71646  0.00404  0.34489  1.0000
  C   C191      1.0  0.71527  0.03628  0.34941  1.0000
  N   N71       1.0  0.70014  0.04917  0.35696  1.0000
  C   C192      1.0  0.68636  0.03147  0.36084  1.0000
  N   N72       1.0  0.68823  0.99963  0.35743  1.0000
  C   C193      1.0  0.52362  0.52398  0.38489  1.0000
  C   C194      1.0  0.53107  0.55396  0.38142  1.0000
  H   H73       1.0  0.52952  0.50612  0.41790  1.0000
  H   H74       1.0  0.54210  0.55676  0.41246  1.0000
  C   C195      1.0  0.47662  0.45441  0.37051  1.0000
  C   C196      1.0  0.48446  0.48406  0.37267  1.0000
  H   H75       1.0  0.46483  0.45294  0.39251  1.0000
  H   H76       1.0  0.47804  0.50310  0.39607  1.0000
  C   C197      1.0  0.98499  0.08001  0.34337  1.0000
  C   C198      1.0  0.00052  0.07468  0.38390  1.0000
  C   C199      1.0  0.00772  0.04423  0.38052  1.0000
  C   C200      1.0  0.00002  0.01847  0.33769  1.0000
  C   C201      1.0  0.00741  0.98774  0.33808  1.0000
  C   C202      1.0  0.99901  0.96064  0.37019  1.0000
  C   C203      1.0  0.00698  0.93093  0.37082  1.0000
  C   C204      1.0  0.02332  0.92700  0.34184  1.0000
  H   H77       1.0  0.00065  0.91196  0.39539  1.0000
  H   H78       1.0  0.01868  0.04077  0.41189  1.0000
  N   N73       1.0  0.98301  0.96365  0.40502  1.0000
  N   N74       1.0  0.00864  0.09930  0.43051  1.0000
  O   O49       1.0  0.98240  0.95637  0.48687  1.0000
  O   O50       1.0  0.02225  0.10549  0.39594  1.0000
  O   O51       1.0  0.97303  0.94675  0.36260  1.0000
  O   O52       1.0  0.01063  0.09295  0.51231  1.0000
  C   C205      1.0  0.35169  0.31429  0.34059  1.0000
  C   C206      1.0  0.35657  0.34670  0.33874  1.0000
  C   C207      1.0  0.37337  0.35493  0.34014  1.0000
  C   C208      1.0  0.38589  0.33209  0.34476  1.0000
  C   C209      1.0  0.40285  0.34097  0.34316  1.0000
  C   C210      1.0  0.40953  0.36523  0.39859  1.0000
  C   C211      1.0  0.42636  0.37304  0.39231  1.0000
  C   C212      1.0  0.43701  0.35661  0.33418  1.0000
  H   H79       1.0  0.43100  0.38997  0.43428  1.0000
  H   H80       1.0  0.37645  0.37830  0.33549  1.0000
  N   N75       1.0  0.39955  0.38021  0.46356  1.0000
  N   N76       1.0  0.34486  0.37123  0.33531  1.0000
  O   O53       1.0  0.39903  0.40962  0.45199  1.0000
  O   O54       1.0  0.34692  0.38875  0.26798  1.0000
  O   O55       1.0  0.40443  0.37473  0.54211  1.0000
  O   O56       1.0  0.34529  0.38800  0.40502  1.0000
  C   C213      1.0  0.65608  0.69449  0.34295  1.0000
  C   C214      1.0  0.65123  0.66455  0.37799  1.0000
  C   C215      1.0  0.63453  0.65564  0.37712  1.0000
  C   C216      1.0  0.62218  0.67571  0.34359  1.0000
  C   C217      1.0  0.60533  0.66626  0.34363  1.0000
  C   C218      1.0  0.59734  0.65436  0.42173  1.0000
  C   C219      1.0  0.58067  0.64543  0.41751  1.0000
  C   C220      1.0  0.57155  0.64863  0.33762  1.0000
  H   H81       1.0  0.57496  0.63783  0.47480  1.0000
  H   H82       1.0  0.63142  0.63381  0.40123  1.0000
  N   N77       1.0  0.60581  0.65339  0.50468  1.0000
  N   N78       1.0  0.66287  0.64411  0.41759  1.0000
  O   O57       1.0  0.60624  0.62590  0.53659  1.0000
  O   O58       1.0  0.66306  0.61746  0.38035  1.0000
  O   O59       1.0  0.59948  0.67153  0.56177  1.0000
  O   O60       1.0  0.66018  0.64033  0.50007  1.0000
  C   C221      1.0  0.12721  0.79994  0.33558  1.0000
  C   C222      1.0  0.14380  0.79139  0.33789  1.0000
  H   H83       1.0  0.11869  0.78234  0.33159  1.0000
  H   H84       1.0  0.14645  0.76778  0.33603  1.0000
  C   C223      1.0  0.07789  0.83229  0.40254  1.0000
  C   C224      1.0  0.09459  0.82495  0.39898  1.0000
  H   H85       1.0  0.07067  0.81990  0.44623  1.0000
  H   H86       1.0  0.09886  0.80768  0.44101  1.0000
  C   C225      1.0  0.88123  0.20576  0.37129  1.0000
  C   C226      1.0  0.86472  0.21486  0.37149  1.0000
  H   H87       1.0  0.88972  0.22150  0.39443  1.0000
  H   H88       1.0  0.86192  0.23672  0.39657  1.0000
  C   C227      1.0  0.92908  0.16239  0.42103  1.0000
  C   C228      1.0  0.91245  0.17051  0.41812  1.0000
  H   H89       1.0  0.93551  0.16650  0.47884  1.0000
  H   H90       1.0  0.90728  0.17981  0.47487  1.0000
  C   C229      1.0  0.51860  0.20758  0.39372  1.0000
  C   C230      1.0  0.52814  0.18012  0.39705  1.0000
  H   H91       1.0  0.50794  0.20815  0.42938  1.0000
  H   H92       1.0  0.52392  0.16151  0.43440  1.0000
  C   C231      1.0  0.50820  0.31688  0.35141  1.0000
  C   C232      1.0  0.51853  0.29039  0.35376  1.0000
  H   H93       1.0  0.51289  0.33819  0.37110  1.0000
  H   H94       1.0  0.53029  0.29337  0.37513  1.0000
  C   C233      1.0  0.49063  0.79989  0.40909  1.0000
  C   C234      1.0  0.48125  0.82757  0.41168  1.0000
  H   H95       1.0  0.50113  0.79897  0.44618  1.0000
  H   H96       1.0  0.48543  0.84600  0.44990  1.0000
  C   C235      1.0  0.50087  0.69066  0.36189  1.0000
  C   C236      1.0  0.49063  0.71727  0.36524  1.0000
  H   H97       1.0  0.49603  0.66925  0.37946  1.0000
  H   H98       1.0  0.47879  0.71428  0.38526  1.0000
  C   C237      1.0  0.96538  0.67744  0.33582  1.0000
  C   C238      1.0  0.95998  0.70404  0.38602  1.0000
  C   C239      1.0  0.96981  0.73166  0.38901  1.0000
  C   C240      1.0  0.98494  0.73332  0.34369  1.0000
  C   C241      1.0  0.99549  0.75996  0.35235  1.0000
  C   C242      1.0  0.01198  0.75679  0.38050  1.0000
  C   C243      1.0  0.02225  0.78370  0.38161  1.0000
  C   C244      1.0  0.01657  0.81400  0.35641  1.0000
  H   H99       1.0  0.03409  0.78087  0.40170  1.0000
  H   H100      1.0  0.96621  0.75018  0.42857  1.0000
  N   N79       1.0  0.01790  0.72698  0.40918  1.0000
  N   N80       1.0  0.94540  0.70201  0.43656  1.0000
  O   O61       1.0  0.02228  0.72766  0.49011  1.0000
  O   O62       1.0  0.93528  0.72251  0.41179  1.0000
  O   O63       1.0  0.02973  0.71790  0.36215  1.0000
  O   O64       1.0  0.94799  0.70532  0.51929  1.0000
  C   C245      1.0  0.04146  0.33083  0.32401  1.0000
  C   C246      1.0  0.04678  0.30457  0.37579  1.0000
  C   C247      1.0  0.03713  0.27670  0.37810  1.0000
  C   C248      1.0  0.02224  0.27450  0.33057  1.0000
  C   C249      1.0  0.01174  0.24780  0.33932  1.0000
  C   C250      1.0  0.99516  0.25095  0.36585  1.0000
  C   C251      1.0  0.98499  0.22390  0.36807  1.0000
  C   C252      1.0  0.99086  0.19347  0.34560  1.0000
  H   H101      1.0  0.97310  0.22671  0.38732  1.0000
  H   H102      1.0  0.04064  0.25846  0.41894  1.0000
  N   N81       1.0  0.98906  0.28091  0.39212  1.0000
  N   N82       1.0  0.06107  0.30722  0.42856  1.0000
  O   O65       1.0  0.98448  0.28084  0.47273  1.0000
  O   O66       1.0  0.07148  0.28694  0.40602  1.0000
  O   O67       1.0  0.97732  0.28944  0.34358  1.0000
  O   O68       1.0  0.05808  0.30414  0.51094  1.0000
  C   C253      1.0  0.32351  0.17305  0.32803  1.0000
  C   C254      1.0  0.32557  0.20609  0.32748  1.0000
  H   H103      1.0  0.33357  0.15915  0.31823  1.0000
  H   H104      1.0  0.33712  0.21442  0.31739  1.0000
  C   C255      1.0  0.31668  0.07451  0.40479  1.0000
  C   C256      1.0  0.31714  0.10770  0.40097  1.0000
  H   H105      1.0  0.32496  0.06332  0.44519  1.0000
  H   H106      1.0  0.32569  0.11913  0.43904  1.0000
  C   C257      1.0  0.68462  0.83531  0.32117  1.0000
  C   C258      1.0  0.68244  0.80231  0.32126  1.0000
  H   H107      1.0  0.67465  0.84931  0.30993  1.0000
  H   H108      1.0  0.67090  0.79410  0.31013  1.0000
  C   C259      1.0  0.69154  0.93384  0.39786  1.0000
  C   C260      1.0  0.69095  0.90065  0.39408  1.0000
  H   H109      1.0  0.68318  0.94518  0.43738  1.0000
  H   H110      1.0  0.68220  0.88939  0.43127  1.0000
  C   C261      1.0  0.19588  0.72731  0.34449  1.0000
  C   C262      1.0  0.21159  0.71342  0.33221  1.0000
  C   C263      1.0  0.21346  0.67995  0.33094  1.0000
  C   C264      1.0  0.20018  0.65905  0.34279  1.0000
  C   C265      1.0  0.20195  0.62512  0.33819  1.0000
  C   C266      1.0  0.21380  0.60771  0.38787  1.0000
  C   C267      1.0  0.21437  0.57409  0.38183  1.0000
  C   C268      1.0  0.20311  0.55683  0.32920  1.0000
  H   H111      1.0  0.22264  0.56204  0.42026  1.0000
  H   H112      1.0  0.22478  0.67075  0.31901  1.0000
  N   N83       1.0  0.22434  0.62404  0.44717  1.0000
  N   N84       1.0  0.22546  0.73288  0.32003  1.0000
  O   O69       1.0  0.23904  0.61945  0.42748  1.0000
  O   O70       1.0  0.23218  0.72829  0.24526  1.0000
  O   O71       1.0  0.22207  0.61588  0.52743  1.0000
  O   O72       1.0  0.23578  0.72879  0.38137  1.0000
  C   C269      1.0  0.81274  0.28097  0.34756  1.0000
  C   C270      1.0  0.79702  0.29468  0.33422  1.0000
  C   C271      1.0  0.79504  0.32813  0.33362  1.0000
  C   C272      1.0  0.80822  0.34914  0.34724  1.0000
  C   C273      1.0  0.80636  0.38305  0.34299  1.0000
  C   C274      1.0  0.79426  0.40020  0.39155  1.0000
  C   C275      1.0  0.79356  0.43380  0.38569  1.0000
  C   C276      1.0  0.80492  0.45131  0.33439  1.0000
  H   H113      1.0  0.78508  0.44566  0.42317  1.0000
  H   H114      1.0  0.78373  0.33722  0.32070  1.0000
  N   N85       1.0  0.78357  0.38363  0.44950  1.0000
  N   N86       1.0  0.78327  0.27507  0.32011  1.0000
  O   O73       1.0  0.76892  0.38800  0.42821  1.0000
  O   O74       1.0  0.77677  0.27983  0.24482  1.0000
  O   O75       1.0  0.78551  0.39173  0.53007  1.0000
  O   O76       1.0  0.77273  0.27880  0.38052  1.0000
  C   C277      1.0  0.26647  0.35518  0.38812  1.0000
  C   C278      1.0  0.27924  0.33288  0.38591  1.0000
  H   H115      1.0  0.25655  0.35088  0.42801  1.0000
  H   H116      1.0  0.27829  0.31324  0.42571  1.0000
  C   C279      1.0  0.24204  0.45575  0.38142  1.0000
  C   C280      1.0  0.25486  0.43349  0.38402  1.0000
  H   H117      1.0  0.24297  0.47576  0.41973  1.0000
  H   H118      1.0  0.26483  0.43818  0.42311  1.0000
  C   C281      1.0  0.74170  0.65380  0.38087  1.0000
  C   C282      1.0  0.72902  0.67630  0.37824  1.0000
  H   H119      1.0  0.75230  0.65935  0.41341  1.0000
  H   H120      1.0  0.73078  0.69736  0.41064  1.0000
  C   C283      1.0  0.76625  0.55395  0.39610  1.0000
  C   C284      1.0  0.75347  0.57629  0.39817  1.0000
  H   H121      1.0  0.76639  0.53623  0.44289  1.0000
  H   H122      1.0  0.74450  0.57386  0.44548  1.0000
  C   C285      1.0  0.21491  0.83767  0.35170  1.0000
  C   C286      1.0  0.21410  0.86597  0.40351  1.0000
  C   C287      1.0  0.22714  0.88804  0.40079  1.0000
  C   C288      1.0  0.24109  0.88290  0.34750  1.0000
  C   C289      1.0  0.25434  0.90480  0.34954  1.0000
  C   C290      1.0  0.26870  0.89825  0.39917  1.0000
  C   C291      1.0  0.28160  0.92055  0.39953  1.0000
  C   C292      1.0  0.28058  0.94985  0.35347  1.0000
  H   H123      1.0  0.29181  0.91531  0.43611  1.0000
  H   H124      1.0  0.22651  0.90795  0.43978  1.0000
  N   N87       1.0  0.26965  0.87000  0.45002  1.0000
  N   N88       1.0  0.20077  0.87118  0.46210  1.0000
  O   O77       1.0  0.27082  0.87582  0.53262  1.0000
  O   O78       1.0  0.19434  0.89771  0.44858  1.0000
  O   O79       1.0  0.28157  0.85328  0.42659  1.0000
  O   O80       1.0  0.20524  0.87000  0.54283  1.0000
  C   C293      1.0  0.79423  0.17000  0.34970  1.0000
  C   C294      1.0  0.79599  0.14002  0.39255  1.0000
  C   C295      1.0  0.78311  0.11761  0.38923  1.0000
  C   C296      1.0  0.76833  0.12412  0.34460  1.0000
  C   C297      1.0  0.75520  0.10199  0.34727  1.0000
  C   C298      1.0  0.74204  0.10592  0.40806  1.0000
  C   C299      1.0  0.72906  0.08379  0.40775  1.0000
  C   C300      1.0  0.72896  0.05709  0.35024  1.0000
  H   H125      1.0  0.71965  0.08713  0.45189  1.0000
  H   H126      1.0  0.78445  0.09645  0.42182  1.0000
  N   N89       1.0  0.74235  0.13140  0.46982  1.0000
  N   N90       1.0  0.81018  0.13321  0.44322  1.0000
  O   O81       1.0  0.74289  0.12155  0.54947  1.0000
  O   O82       1.0  0.81701  0.10833  0.41681  1.0000
  O   O83       1.0  0.73012  0.14900  0.46116  1.0000
  O   O84       1.0  0.80694  0.13029  0.52537  1.0000
  C   C301      1.0  0.15082  0.42037  0.35672  1.0000
  C   C302      1.0  0.16655  0.43360  0.35322  1.0000
  H   H127      1.0  0.14921  0.39933  0.38948  1.0000
  H   H128      1.0  0.17582  0.42147  0.38366  1.0000
  C   C303      1.0  0.09284  0.43551  0.37521  1.0000
  C   C304      1.0  0.10922  0.44475  0.36872  1.0000
  H   H129      1.0  0.08483  0.45118  0.40330  1.0000
  H   H130      1.0  0.11239  0.46661  0.39255  1.0000
  C   C305      1.0  0.85596  0.58850  0.36721  1.0000
  C   C306      1.0  0.84034  0.57482  0.36335  1.0000
  H   H131      1.0  0.85759  0.60893  0.40293  1.0000
  H   H132      1.0  0.83110  0.58580  0.39742  1.0000
  C   C307      1.0  0.91193  0.58191  0.40763  1.0000
  C   C308      1.0  0.89555  0.57259  0.40059  1.0000
  H   H133      1.0  0.91907  0.57122  0.45514  1.0000
  H   H134      1.0  0.89129  0.55536  0.44280  1.0000
  C   C309      1.0  0.33898  0.96380  0.36879  1.0000
  C   C310      1.0  0.35248  0.97992  0.40779  1.0000
  C   C311      1.0  0.36819  0.96607  0.40465  1.0000
  C   C312      1.0  0.37106  0.93653  0.36318  1.0000
  C   C313      1.0  0.38732  0.92475  0.35390  1.0000
  C   C314      1.0  0.39229  0.89439  0.38446  1.0000
  C   C315      1.0  0.40890  0.88523  0.37679  1.0000
  C   C316      1.0  0.42085  0.90565  0.34022  1.0000
  H   H135      1.0  0.41235  0.86370  0.40174  1.0000
  H   H136      1.0  0.37776  0.97810  0.43265  1.0000
  N   N91       1.0  0.38075  0.87430  0.42611  1.0000
  N   N92       1.0  0.35029  0.00952  0.45074  1.0000
  O   O85       1.0  0.38449  0.86862  0.50641  1.0000
  O   O86       1.0  0.35842  0.03097  0.41320  1.0000
  O   O87       1.0  0.37945  0.84852  0.38473  1.0000
  O   O88       1.0  0.35407  0.00847  0.53255  1.0000
  C   C317      1.0  0.67058  0.04560  0.36492  1.0000
  C   C318      1.0  0.65716  0.03087  0.40894  1.0000
  C   C319      1.0  0.64150  0.04497  0.40482  1.0000
  C   C320      1.0  0.63887  0.07357  0.35834  1.0000
  C   C321      1.0  0.62286  0.08581  0.34912  1.0000
  C   C322      1.0  0.61656  0.10936  0.40746  1.0000
  C   C323      1.0  0.60011  0.11919  0.39786  1.0000
  C   C324      1.0  0.58969  0.10521  0.33346  1.0000
  H   H137      1.0  0.59550  0.13544  0.44205  1.0000
  H   H138      1.0  0.63189  0.03398  0.43563  1.0000
  N   N93       1.0  0.62663  0.12143  0.47664  1.0000
  N   N94       1.0  0.65949  0.00267  0.45864  1.0000
  O   O89       1.0  0.62097  0.11487  0.55290  1.0000
  O   O90       1.0  0.65096  0.98037  0.42860  1.0000
  O   O91       1.0  0.62819  0.15089  0.47063  1.0000
  O   O92       1.0  0.65627  0.00649  0.54050  1.0000
  C   C325      1.0  0.03159  0.44095  0.36297  1.0000
  C   C326      1.0  0.01643  0.43693  0.40807  1.0000
  C   C327      1.0  0.00526  0.46241  0.41162  1.0000
  C   C328      1.0  0.00874  0.49179  0.37088  1.0000
  C   C329      1.0  0.99722  0.51696  0.37365  1.0000
  C   C330      1.0  0.00147  0.54757  0.40511  1.0000
  C   C331      1.0  0.98970  0.57199  0.40233  1.0000
  C   C332      1.0  0.97370  0.56672  0.37027  1.0000
  H   H139      1.0  0.99299  0.59394  0.42492  1.0000
  H   H140      1.0  0.99449  0.45943  0.44530  1.0000
  N   N95       1.0  0.01721  0.55324  0.44084  1.0000
  N   N96       1.0  0.01268  0.40797  0.45132  1.0000
  O   O93       1.0  0.01654  0.56122  0.52211  1.0000
  O   O94       1.0  0.00016  0.39535  0.41851  1.0000
  O   O95       1.0  0.02460  0.57440  0.39774  1.0000
  O   O96       1.0  0.01065  0.41149  0.53445  1.0000
  C   C333      1.0  0.48451  0.99529  0.35762  1.0000
  C   C334      1.0  0.47322  0.97039  0.36062  1.0000
  H   H141      1.0  0.48175  0.01593  0.39007  1.0000
  H   H142      1.0  0.46261  0.97382  0.39547  1.0000
  C   C335      1.0  0.53871  0.03595  0.34123  1.0000
  C   C336      1.0  0.52712  0.01151  0.34012  1.0000
  H   H143      1.0  0.55006  0.03122  0.36637  1.0000
  H   H144      1.0  0.53048  0.98978  0.36408  1.0000
