data_image0
_chemical_formula_structural       C4H2C2N2C2H3C16H16C16H16C16H16C5H2NH2NO2NC5H2NH2NO2NC6H2NH2NO2NC5H2NH2NO2NC5H2NH2NO2NC6H2NH2NO2NC2NC6NC36H21C4H4C3NC3NC5NC5NC36H26C4H4C3NC3NC5NC5NC36H26C4H4C3HC4HN2H2O2NC3HC4HN2H2O2NC2HC4HN2H2O2NC3HC4HN2H2O2NC3HC4HN2H2O2NC2HC4HN2H2O2N
_chemical_formula_sum              "C288 H186 N48 O24"
_cell_length_a       75.2472
_cell_length_b       75.2472
_cell_length_c       14.9635
_cell_angle_alpha    89.7434
_cell_angle_beta     90.2566
_cell_angle_gamma    120

_space_group_name_H-M_alt    "P 1"
_space_group_IT_number       1

loop_
  _space_group_symop_operation_xyz
  'x, y, z'

loop_
  _atom_site_type_symbol
  _atom_site_label
  _atom_site_symmetry_multiplicity
  _atom_site_fract_x
  _atom_site_fract_y
  _atom_site_fract_z
  _atom_site_occupancy
  C   C1        1.0  0.02177  0.60922  0.34850  1.0000
  C   C2        1.0  0.01457  0.58812  0.35048  1.0000
  C   C3        1.0  0.01251  0.51058  0.35104  1.0000
  C   C4        1.0  0.01875  0.49594  0.34837  1.0000
  H   H1        1.0  0.01322  0.61633  0.34776  1.0000
  H   H2        1.0  0.00960  0.48034  0.34701  1.0000
  C   C5        1.0  0.04295  0.61938  0.34880  1.0000
  C   C6        1.0  0.04920  0.60474  0.35063  1.0000
  N   N1        1.0  0.03161  0.58631  0.35106  1.0000
  N   N2        1.0  0.03009  0.52900  0.35185  1.0000
  C   C7        1.0  0.04714  0.52719  0.35071  1.0000
  C   C8        1.0  0.03993  0.50610  0.34808  1.0000
  H   H3        1.0  0.03127  0.57339  0.35382  1.0000
  H   H4        1.0  0.03044  0.54191  0.35553  1.0000
  H   H5        1.0  0.04848  0.49899  0.34654  1.0000
  C   C9        1.0  0.11102  0.66190  0.28230  1.0000
  C   C10       1.0  0.09489  0.64142  0.27756  1.0000
  C   C11       1.0  0.13692  0.70800  0.31351  1.0000
  C   C12       1.0  0.15344  0.72827  0.32028  1.0000
  C   C13       1.0  0.10776  0.52961  0.27706  1.0000
  C   C14       1.0  0.09267  0.53545  0.27463  1.0000
  C   C15       1.0  0.16307  0.52445  0.31700  1.0000
  C   C16       1.0  0.14767  0.52985  0.31286  1.0000
  C   C17       1.0  0.96606  0.47421  0.27862  1.0000
  C   C18       1.0  0.95010  0.45365  0.28360  1.0000
  C   C19       1.0  0.90877  0.38697  0.31905  1.0000
  C   C20       1.0  0.92502  0.40738  0.31196  1.0000
  C   C21       1.0  0.96894  0.57992  0.27439  1.0000
  C   C22       1.0  0.95370  0.58553  0.27682  1.0000
  C   C23       1.0  0.91348  0.58455  0.31231  1.0000
  C   C24       1.0  0.89785  0.58962  0.31645  1.0000
  H   H6        1.0  0.88467  0.58085  0.28081  1.0000
  H   H7        1.0  0.91097  0.57217  0.27472  1.0000
  H   H8        1.0  0.94721  0.58633  0.21777  1.0000
  H   H9        1.0  0.97294  0.57651  0.21422  1.0000
  H   H10       1.0  0.97015  0.48130  0.21757  1.0000
  H   H11       1.0  0.94283  0.44644  0.22570  1.0000
  H   H12       1.0  0.08870  0.53904  0.21448  1.0000
  H   H13       1.0  0.11417  0.52886  0.21804  1.0000
  H   H14       1.0  0.15037  0.54240  0.27569  1.0000
  H   H15       1.0  0.17629  0.53317  0.28173  1.0000
  H   H16       1.0  0.09012  0.63461  0.21633  1.0000
  H   H17       1.0  0.11772  0.66934  0.22396  1.0000
  H   H18       1.0  0.15375  0.73928  0.27877  1.0000
  H   H19       1.0  0.12565  0.70495  0.26751  1.0000
  H   H20       1.0  0.93579  0.41084  0.26335  1.0000
  H   H21       1.0  0.90816  0.37629  0.27510  1.0000
  C   C25       1.0  0.42516  0.53086  0.28625  1.0000
  C   C26       1.0  0.44564  0.53521  0.28151  1.0000
  C   C27       1.0  0.37905  0.51053  0.31741  1.0000
  C   C28       1.0  0.35877  0.50673  0.32412  1.0000
  C   C29       1.0  0.55745  0.65991  0.28092  1.0000
  C   C30       1.0  0.55161  0.63899  0.27849  1.0000
  C   C31       1.0  0.56262  0.72033  0.32081  1.0000
  C   C32       1.0  0.55721  0.69953  0.31673  1.0000
  C   C33       1.0  0.61285  0.57362  0.28266  1.0000
  C   C34       1.0  0.63342  0.57821  0.28764  1.0000
  C   C35       1.0  0.70008  0.60352  0.32280  1.0000
  C   C36       1.0  0.67968  0.59937  0.31586  1.0000
  C   C37       1.0  0.50715  0.47080  0.27818  1.0000
  C   C38       1.0  0.50153  0.44993  0.28058  1.0000
  C   C39       1.0  0.50251  0.41063  0.31603  1.0000
  C   C40       1.0  0.49744  0.38992  0.32017  1.0000
  H   H22       1.0  0.50620  0.38557  0.28453  1.0000
  H   H23       1.0  0.51489  0.42057  0.27846  1.0000
  H   H24       1.0  0.50074  0.44276  0.22153  1.0000
  H   H25       1.0  0.51056  0.47831  0.21802  1.0000
  H   H26       1.0  0.60575  0.57070  0.22163  1.0000
  H   H27       1.0  0.64062  0.57825  0.22974  1.0000
  H   H28       1.0  0.54804  0.63155  0.21834  1.0000
  H   H29       1.0  0.55822  0.66718  0.22189  1.0000
  H   H30       1.0  0.54467  0.68975  0.27943  1.0000
  H   H31       1.0  0.55392  0.72490  0.28548  1.0000
  H   H32       1.0  0.45245  0.53737  0.22028  1.0000
  H   H33       1.0  0.41770  0.53019  0.22792  1.0000
  H   H34       1.0  0.34778  0.49611  0.28254  1.0000
  H   H35       1.0  0.38213  0.50241  0.27137  1.0000
  H   H36       1.0  0.67620  0.60676  0.26720  1.0000
  H   H37       1.0  0.71075  0.61366  0.27879  1.0000
  C   C41       1.0  0.55623  0.97606  0.28995  1.0000
  C   C42       1.0  0.55189  0.99220  0.28518  1.0000
  C   C43       1.0  0.57654  0.95021  0.32112  1.0000
  C   C44       1.0  0.58032  0.93371  0.32786  1.0000
  C   C45       1.0  0.42726  0.97938  0.28261  1.0000
  C   C46       1.0  0.44818  0.99447  0.28080  1.0000
  C   C47       1.0  0.36681  0.92401  0.32025  1.0000
  C   C48       1.0  0.38761  0.93941  0.31689  1.0000
  C   C49       1.0  0.51341  0.12097  0.28632  1.0000
  C   C50       1.0  0.50882  0.13693  0.29135  1.0000
  C   C51       1.0  0.48352  0.17823  0.32662  1.0000
  C   C52       1.0  0.48766  0.16198  0.31965  1.0000
  C   C53       1.0  0.61616  0.11803  0.28039  1.0000
  C   C54       1.0  0.63703  0.13329  0.28222  1.0000
  C   C55       1.0  0.67636  0.17356  0.31622  1.0000
  C   C56       1.0  0.69707  0.18920  0.31969  1.0000
  H   H38       1.0  0.70138  0.20232  0.28363  1.0000
  H   H39       1.0  0.66637  0.17601  0.27874  1.0000
  H   H40       1.0  0.64413  0.13969  0.22294  1.0000
  H   H41       1.0  0.60858  0.11394  0.22040  1.0000
  H   H42       1.0  0.51632  0.11690  0.22528  1.0000
  H   H43       1.0  0.50877  0.14419  0.23346  1.0000
  H   H44       1.0  0.45571  0.99854  0.22083  1.0000
  H   H45       1.0  0.42007  0.97306  0.22334  1.0000
  H   H46       1.0  0.39745  0.93677  0.27978  1.0000
  H   H47       1.0  0.36229  0.91085  0.28458  1.0000
  H   H48       1.0  0.54974  0.99697  0.22393  1.0000
  H   H49       1.0  0.55691  0.96939  0.23161  1.0000
  H   H50       1.0  0.59095  0.93342  0.28631  1.0000
  H   H51       1.0  0.58467  0.96149  0.27516  1.0000
  H   H52       1.0  0.48028  0.15122  0.27099  1.0000
  H   H53       1.0  0.47339  0.17885  0.28258  1.0000
  C   C57       1.0  0.30333  0.50886  0.33056  1.0000
  C   C58       1.0  0.29875  0.52049  0.27003  1.0000
  C   C59       1.0  0.27897  0.51833  0.27096  1.0000
  C   C60       1.0  0.23269  0.50131  0.25355  1.0000
  C   C61       1.0  0.21480  0.50305  0.25293  1.0000
  H   H54       1.0  0.23729  0.49764  0.19556  1.0000
  H   H55       1.0  0.27616  0.52749  0.22927  1.0000
  N   N3        1.0  0.20422  0.49980  0.17497  1.0000
  H   H56       1.0  0.20871  0.49630  0.12018  1.0000
  H   H57       1.0  0.19181  0.50071  0.17136  1.0000
  N   N4        1.0  0.31428  0.53450  0.21178  1.0000
  O   O1        1.0  0.31835  0.55261  0.22572  1.0000
  O   O2        1.0  0.30905  0.53015  0.13139  1.0000
  N   N5        1.0  0.32225  0.51156  0.33169  1.0000
  C   C62       1.0  0.57820  0.87613  0.33428  1.0000
  C   C63       1.0  0.56659  0.86003  0.27373  1.0000
  C   C64       1.0  0.56877  0.84243  0.27462  1.0000
  C   C65       1.0  0.58579  0.81320  0.25728  1.0000
  C   C66       1.0  0.58404  0.79357  0.25670  1.0000
  H   H58       1.0  0.58945  0.82156  0.19926  1.0000
  H   H59       1.0  0.55960  0.83052  0.23295  1.0000
  N   N6        1.0  0.58729  0.78637  0.17874  1.0000
  H   H60       1.0  0.59078  0.79444  0.12395  1.0000
  H   H61       1.0  0.58638  0.77305  0.17517  1.0000
  N   N7        1.0  0.55257  0.86165  0.21548  1.0000
  O   O3        1.0  0.53446  0.84757  0.22941  1.0000
  O   O4        1.0  0.55692  0.86092  0.13509  1.0000
  N   N8        1.0  0.57549  0.89235  0.33541  1.0000
  C   C67       1.0  0.21095  0.78379  0.32741  1.0000
  C   C68       1.0  0.22712  0.78848  0.26718  1.0000
  C   C69       1.0  0.24472  0.80827  0.26872  1.0000
  C   C70       1.0  0.24649  0.82370  0.32787  1.0000
  C   C71       1.0  0.27404  0.85457  0.25299  1.0000
  C   C72       1.0  0.29368  0.87244  0.25328  1.0000
  H   H62       1.0  0.26579  0.85007  0.19466  1.0000
  H   H63       1.0  0.25669  0.81113  0.22735  1.0000
  N   N9        1.0  0.30103  0.88315  0.17571  1.0000
  H   H64       1.0  0.29307  0.87877  0.12062  1.0000
  H   H65       1.0  0.31437  0.89557  0.17273  1.0000
  N   N10       1.0  0.22559  0.77303  0.20865  1.0000
  O   O5        1.0  0.23966  0.76896  0.22274  1.0000
  O   O6        1.0  0.22642  0.77836  0.12837  1.0000
  N   N11       1.0  0.19475  0.76485  0.32811  1.0000
  C   C73       1.0  0.75609  0.60262  0.33269  1.0000
  C   C74       1.0  0.76068  0.59105  0.27259  1.0000
  C   C75       1.0  0.78057  0.59348  0.27305  1.0000
  C   C76       1.0  0.82690  0.61105  0.25424  1.0000
  C   C77       1.0  0.84496  0.60962  0.25342  1.0000
  H   H66       1.0  0.82204  0.61456  0.19619  1.0000
  H   H67       1.0  0.78339  0.58435  0.23174  1.0000
  N   N12       1.0  0.85535  0.61294  0.17521  1.0000
  H   H68       1.0  0.85062  0.61628  0.12037  1.0000
  H   H69       1.0  0.86787  0.61223  0.17146  1.0000
  N   N13       1.0  0.74506  0.57684  0.21515  1.0000
  O   O7        1.0  0.74126  0.55882  0.22987  1.0000
  O   O8        1.0  0.75001  0.58113  0.13451  1.0000
  N   N14       1.0  0.73707  0.59966  0.33409  1.0000
  C   C78       1.0  0.48445  0.23514  0.33649  1.0000
  C   C79       1.0  0.49603  0.25141  0.27644  1.0000
  C   C80       1.0  0.49361  0.26888  0.27698  1.0000
  C   C81       1.0  0.47601  0.29764  0.25807  1.0000
  C   C82       1.0  0.47744  0.31714  0.25723  1.0000
  H   H70       1.0  0.47250  0.28937  0.20003  1.0000
  H   H71       1.0  0.50273  0.28090  0.23564  1.0000
  N   N15       1.0  0.47412  0.32434  0.17900  1.0000
  H   H72       1.0  0.47078  0.31636  0.12417  1.0000
  H   H73       1.0  0.47482  0.33757  0.17523  1.0000
  N   N16       1.0  0.51024  0.25011  0.21903  1.0000
  O   O9        1.0  0.52827  0.26430  0.23382  1.0000
  O   O10       1.0  0.50598  0.25094  0.13838  1.0000
  N   N17       1.0  0.48740  0.21907  0.33786  1.0000
  C   C83       1.0  0.85192  0.33091  0.32966  1.0000
  C   C84       1.0  0.83556  0.32624  0.27004  1.0000
  C   C85       1.0  0.81810  0.30635  0.27117  1.0000
  C   C86       1.0  0.81667  0.29079  0.32929  1.0000
  C   C87       1.0  0.78925  0.25998  0.25379  1.0000
  C   C88       1.0  0.76975  0.24193  0.25383  1.0000
  H   H74       1.0  0.79741  0.26474  0.19542  1.0000
  H   H75       1.0  0.80601  0.30348  0.23022  1.0000
  N   N18       1.0  0.76239  0.23141  0.17600  1.0000
  H   H76       1.0  0.77026  0.23604  0.12087  1.0000
  H   H77       1.0  0.74915  0.21889  0.17284  1.0000
  N   N19       1.0  0.83676  0.34180  0.21248  1.0000
  O   O11       1.0  0.82259  0.34561  0.22759  1.0000
  O   O12       1.0  0.83582  0.33676  0.13189  1.0000
  N   N20       1.0  0.86798  0.34994  0.33062  1.0000
  C   C89       1.0  0.99351  0.57257  0.35214  1.0000
  C   C90       1.0  0.98626  0.55115  0.35327  1.0000
  N   N21       1.0  0.99745  0.54162  0.35118  1.0000
  C   C91       1.0  0.98546  0.52098  0.35378  1.0000
  C   C92       1.0  0.96525  0.51699  0.35758  1.0000
  C   C93       1.0  0.96574  0.53558  0.35721  1.0000
  C   C94       1.0  0.99176  0.50606  0.35303  1.0000
  C   C95       1.0  0.06819  0.54273  0.35229  1.0000
  C   C96       1.0  0.07545  0.56415  0.35318  1.0000
  N   N22       1.0  0.06426  0.57368  0.35112  1.0000
  C   C97       1.0  0.07625  0.59432  0.35327  1.0000
  C   C98       1.0  0.09647  0.59830  0.35662  1.0000
  C   C99       1.0  0.09598  0.57972  0.35662  1.0000
  C   C100      1.0  0.06995  0.60924  0.35250  1.0000
  C   C101      1.0  0.08567  0.63025  0.35636  1.0000
  C   C102      1.0  0.09278  0.63998  0.43977  1.0000
  C   C103      1.0  0.10894  0.66042  0.44421  1.0000
  C   C104      1.0  0.11851  0.67175  0.36570  1.0000
  C   C105      1.0  0.13543  0.69229  0.37095  1.0000
  C   C106      1.0  0.16907  0.73349  0.38479  1.0000
  C   C107      1.0  0.16774  0.71784  0.44178  1.0000
  C   C108      1.0  0.15127  0.69762  0.43465  1.0000
  C   C109      1.0  0.08318  0.53643  0.35417  1.0000
  C   C110      1.0  0.08900  0.53137  0.43598  1.0000
  C   C111      1.0  0.10402  0.52545  0.43808  1.0000
  C   C112      1.0  0.11372  0.52449  0.35876  1.0000
  C   C113      1.0  0.12917  0.51872  0.36138  1.0000
  C   C114      1.0  0.12661  0.50186  0.41351  1.0000
  C   C115      1.0  0.14197  0.49641  0.41739  1.0000
  C   C116      1.0  0.16055  0.50762  0.36948  1.0000
  C   C117      1.0  0.97606  0.48504  0.35699  1.0000
  C   C118      1.0  0.94360  0.44336  0.36686  1.0000
  C   C119      1.0  0.95393  0.45436  0.44488  1.0000
  C   C120      1.0  0.96990  0.47489  0.44020  1.0000
  C   C121      1.0  0.92694  0.42268  0.37252  1.0000
  C   C122      1.0  0.91181  0.41679  0.43972  1.0000
  C   C123      1.0  0.89562  0.39642  0.44715  1.0000
  C   C124      1.0  0.89386  0.38119  0.38700  1.0000
  C   C125      1.0  0.97851  0.57885  0.35398  1.0000
  C   C126      1.0  0.97262  0.58360  0.43585  1.0000
  C   C127      1.0  0.95744  0.58931  0.43795  1.0000
  C   C128      1.0  0.94764  0.59032  0.35858  1.0000
  C   C129      1.0  0.93195  0.59576  0.36123  1.0000
  C   C130      1.0  0.90010  0.60619  0.36942  1.0000
  C   C131      1.0  0.91865  0.61749  0.41777  1.0000
  C   C132      1.0  0.93424  0.61237  0.41387  1.0000
  H   H78       1.0  0.92102  0.62961  0.45698  1.0000
  H   H79       1.0  0.94745  0.62110  0.44938  1.0000
  H   H80       1.0  0.95325  0.59223  0.49869  1.0000
  H   H81       1.0  0.97919  0.58275  0.49457  1.0000
  H   H82       1.0  0.05211  0.63499  0.34818  1.0000
  H   H83       1.0  0.95306  0.53721  0.36004  1.0000
  H   H84       1.0  0.95215  0.50299  0.36056  1.0000
  H   H85       1.0  0.97691  0.48241  0.49800  1.0000
  H   H86       1.0  0.95002  0.44747  0.50635  1.0000
  H   H87       1.0  0.10957  0.61230  0.35912  1.0000
  H   H88       1.0  0.10867  0.57809  0.35922  1.0000
  H   H89       1.0  0.08245  0.53213  0.49464  1.0000
  H   H90       1.0  0.10813  0.52227  0.49877  1.0000
  H   H91       1.0  0.13941  0.48411  0.45623  1.0000
  H   H92       1.0  0.11336  0.49319  0.44870  1.0000
  H   H93       1.0  0.15110  0.68672  0.47640  1.0000
  H   H94       1.0  0.17881  0.72101  0.48910  1.0000
  H   H95       1.0  0.11360  0.66700  0.50588  1.0000
  H   H96       1.0  0.08638  0.63219  0.49789  1.0000
  H   H97       1.0  0.91229  0.42737  0.48391  1.0000
  H   H98       1.0  0.88507  0.39285  0.49701  1.0000
  C   C133      1.0  0.18512  0.75341  0.39541  1.0000
  C   C134      1.0  0.17571  0.50216  0.37672  1.0000
  C   C135      1.0  0.87810  0.36112  0.39770  1.0000
  C   C136      1.0  0.88472  0.61132  0.37664  1.0000
  H   H99       1.0  0.19011  0.75841  0.45708  1.0000
  H   H100      1.0  0.88683  0.62258  0.41789  1.0000
  H   H101      1.0  0.87364  0.35581  0.45948  1.0000
  H   H102      1.0  0.17353  0.49089  0.41842  1.0000
  C   C137      1.0  0.47785  0.49419  0.35244  1.0000
  C   C138      1.0  0.46768  0.50520  0.35279  1.0000
  C   C139      1.0  0.48232  0.52609  0.35459  1.0000
  N   N23       1.0  0.50076  0.52693  0.35496  1.0000
  C   C140      1.0  0.49894  0.50807  0.35434  1.0000
  C   C141      1.0  0.51449  0.50257  0.35597  1.0000
  C   C142      1.0  0.53592  0.51674  0.35710  1.0000
  N   N24       1.0  0.54544  0.53746  0.35511  1.0000
  C   C143      1.0  0.56609  0.54612  0.35770  1.0000
  C   C144      1.0  0.57007  0.52988  0.36138  1.0000
  C   C145      1.0  0.55149  0.51179  0.36102  1.0000
  C   C146      1.0  0.58100  0.56734  0.35708  1.0000
  C   C147      1.0  0.57648  0.58357  0.35518  1.0000
  N   N25       1.0  0.55806  0.58273  0.35590  1.0000
  C   C148      1.0  0.55987  0.60158  0.35476  1.0000
  C   C149      1.0  0.58096  0.61548  0.35233  1.0000
  C   C150      1.0  0.59112  0.60446  0.35267  1.0000
  C   C151      1.0  0.54432  0.60709  0.35616  1.0000
  C   C152      1.0  0.52290  0.59293  0.35702  1.0000
  N   N26       1.0  0.51338  0.57221  0.35505  1.0000
  C   C153      1.0  0.49274  0.56355  0.35717  1.0000
  C   C154      1.0  0.48875  0.57979  0.36042  1.0000
  C   C155      1.0  0.50733  0.59788  0.36037  1.0000
  C   C156      1.0  0.47782  0.54233  0.35645  1.0000
  C   C157      1.0  0.45681  0.53704  0.36031  1.0000
  C   C158      1.0  0.44708  0.53426  0.44373  1.0000
  C   C159      1.0  0.42663  0.52996  0.44816  1.0000
  C   C160      1.0  0.41530  0.52833  0.36966  1.0000
  C   C161      1.0  0.39474  0.52465  0.37490  1.0000
  C   C162      1.0  0.35352  0.51700  0.38864  1.0000
  C   C163      1.0  0.36914  0.53121  0.44572  1.0000
  C   C164      1.0  0.38938  0.53503  0.43862  1.0000
  C   C165      1.0  0.55062  0.62838  0.35804  1.0000
  C   C166      1.0  0.55566  0.63910  0.43986  1.0000
  C   C167      1.0  0.56158  0.66004  0.44195  1.0000
  C   C168      1.0  0.56256  0.67085  0.36263  1.0000
  C   C169      1.0  0.56833  0.69206  0.36523  1.0000
  C   C170      1.0  0.58518  0.70626  0.41741  1.0000
  C   C171      1.0  0.59065  0.72707  0.42127  1.0000
  C   C172      1.0  0.57945  0.73454  0.37331  1.0000
  C   C173      1.0  0.60202  0.57265  0.36104  1.0000
  C   C174      1.0  0.64371  0.58187  0.37089  1.0000
  C   C175      1.0  0.63271  0.58108  0.44891  1.0000
  C   C176      1.0  0.61218  0.57652  0.44424  1.0000
  C   C177      1.0  0.66440  0.58590  0.37651  1.0000
  C   C178      1.0  0.67031  0.57657  0.44376  1.0000
  C   C179      1.0  0.69068  0.58075  0.45110  1.0000
  C   C180      1.0  0.70589  0.59430  0.39079  1.0000
  C   C181      1.0  0.50822  0.48129  0.35779  1.0000
  C   C182      1.0  0.50347  0.47049  0.43965  1.0000
  C   C183      1.0  0.49777  0.44961  0.44173  1.0000
  C   C184      1.0  0.49674  0.43893  0.36234  1.0000
  C   C185      1.0  0.49130  0.41780  0.36496  1.0000
  C   C186      1.0  0.48086  0.37550  0.37314  1.0000
  C   C187      1.0  0.46957  0.38267  0.42150  1.0000
  C   C188      1.0  0.47469  0.40339  0.41759  1.0000
  H   H103      1.0  0.45744  0.37285  0.46071  1.0000
  H   H104      1.0  0.46597  0.40782  0.45311  1.0000
  H   H105      1.0  0.49483  0.44238  0.50245  1.0000
  H   H106      1.0  0.50432  0.47782  0.49837  1.0000
  H   H107      1.0  0.47073  0.47852  0.35171  1.0000
  H   H108      1.0  0.45207  0.49875  0.35220  1.0000
  H   H109      1.0  0.51367  0.53950  0.35767  1.0000
  H   H110      1.0  0.54515  0.57016  0.35915  1.0000
  H   H111      1.0  0.54986  0.49747  0.36379  1.0000
  H   H112      1.0  0.58408  0.53078  0.36444  1.0000
  H   H113      1.0  0.60466  0.57590  0.50205  1.0000
  H   H114      1.0  0.63961  0.58395  0.51037  1.0000
  H   H115      1.0  0.60673  0.61091  0.35138  1.0000
  H   H116      1.0  0.58807  0.63114  0.35080  1.0000
  H   H117      1.0  0.47475  0.57888  0.36285  1.0000
  H   H118      1.0  0.50896  0.61219  0.36288  1.0000
  H   H119      1.0  0.55490  0.63170  0.49852  1.0000
  H   H120      1.0  0.56476  0.66723  0.50265  1.0000
  H   H121      1.0  0.60294  0.73674  0.46012  1.0000
  H   H122      1.0  0.59385  0.70162  0.45259  1.0000
  H   H123      1.0  0.40026  0.54568  0.48042  1.0000
  H   H124      1.0  0.36595  0.53902  0.49302  1.0000
  H   H125      1.0  0.42006  0.52793  0.50984  1.0000
  H   H126      1.0  0.45487  0.53556  0.50185  1.0000
  H   H127      1.0  0.65975  0.56641  0.48803  1.0000
  H   H128      1.0  0.69428  0.57370  0.50098  1.0000
  C   C189      1.0  0.33359  0.51307  0.39913  1.0000
  C   C190      1.0  0.58491  0.75514  0.38054  1.0000
  C   C191      1.0  0.72596  0.59858  0.40129  1.0000
  C   C192      1.0  0.47573  0.35498  0.38038  1.0000
  H   H129      1.0  0.32855  0.51291  0.46075  1.0000
  H   H130      1.0  0.46447  0.34576  0.42161  1.0000
  H   H131      1.0  0.73132  0.59937  0.46302  1.0000
  H   H132      1.0  0.59619  0.76416  0.42222  1.0000
  C   C193      1.0  0.59289  0.06532  0.35600  1.0000
  C   C194      1.0  0.58188  0.04413  0.35652  1.0000
  C   C195      1.0  0.56099  0.03788  0.35823  1.0000
  N   N27       1.0  0.56014  0.05546  0.35850  1.0000
  C   C196      1.0  0.57899  0.07251  0.35772  1.0000
  C   C197      1.0  0.58449  0.09356  0.35902  1.0000
  C   C198      1.0  0.57031  0.10081  0.36025  1.0000
  N   N28       1.0  0.54959  0.08961  0.35850  1.0000
  C   C199      1.0  0.54093  0.10158  0.36117  1.0000
  C   C200      1.0  0.55717  0.12180  0.36471  1.0000
  C   C201      1.0  0.57526  0.12133  0.36404  1.0000
  C   C202      1.0  0.51971  0.09528  0.36067  1.0000
  C   C203      1.0  0.50348  0.07452  0.35866  1.0000
  N   N29       1.0  0.50433  0.05694  0.35934  1.0000
  C   C204      1.0  0.48548  0.03989  0.35804  1.0000
  C   C205      1.0  0.47158  0.04709  0.35548  1.0000
  C   C206      1.0  0.48259  0.06827  0.35602  1.0000
  C   C207      1.0  0.47997  0.01884  0.35938  1.0000
  C   C208      1.0  0.49415  0.01159  0.36035  1.0000
  N   N30       1.0  0.51486  0.02279  0.35856  1.0000
  C   C209      1.0  0.52353  0.01082  0.36069  1.0000
  C   C210      1.0  0.50730  0.99059  0.36379  1.0000
  C   C211      1.0  0.48920  0.99107  0.36361  1.0000
  C   C212      1.0  0.54475  0.01712  0.36005  1.0000
  C   C213      1.0  0.55005  0.00141  0.36396  1.0000
  C   C214      1.0  0.55282  0.99430  0.44739  1.0000
  C   C215      1.0  0.55711  0.97814  0.45185  1.0000
  C   C216      1.0  0.55875  0.96858  0.37336  1.0000
  C   C217      1.0  0.56242  0.95168  0.37862  1.0000
  C   C218      1.0  0.57004  0.91808  0.39234  1.0000
  C   C219      1.0  0.55583  0.91939  0.44942  1.0000
  C   C220      1.0  0.55203  0.93584  0.44233  1.0000
  C   C221      1.0  0.45869  0.00384  0.36069  1.0000
  C   C222      1.0  0.44786  0.99789  0.44223  1.0000
  C   C223      1.0  0.42692  0.98287  0.44371  1.0000
  C   C224      1.0  0.41622  0.97328  0.36404  1.0000
  C   C225      1.0  0.39501  0.95782  0.36599  1.0000
  C   C226      1.0  0.38072  0.96029  0.41797  1.0000
  C   C227      1.0  0.35991  0.94494  0.42111  1.0000
  C   C228      1.0  0.35251  0.92644  0.37258  1.0000
  C   C229      1.0  0.51439  0.11097  0.36468  1.0000
  C   C230      1.0  0.50517  0.14341  0.37462  1.0000
  C   C231      1.0  0.50597  0.13307  0.45262  1.0000
  C   C232      1.0  0.51053  0.11711  0.44791  1.0000
  C   C233      1.0  0.50113  0.16006  0.38028  1.0000
  C   C234      1.0  0.51047  0.17519  0.44754  1.0000
  C   C235      1.0  0.50630  0.19137  0.45487  1.0000
  C   C236      1.0  0.49276  0.19315  0.39457  1.0000
  C   C237      1.0  0.60577  0.10858  0.36033  1.0000
  C   C238      1.0  0.61666  0.11460  0.44193  1.0000
  C   C239      1.0  0.63755  0.12979  0.44342  1.0000
  C   C240      1.0  0.64812  0.13948  0.36371  1.0000
  C   C241      1.0  0.66925  0.15517  0.36571  1.0000
  C   C242      1.0  0.71157  0.18703  0.37247  1.0000
  C   C243      1.0  0.70446  0.16856  0.42140  1.0000
  C   C244      1.0  0.68373  0.15297  0.41819  1.0000
  H   H133      1.0  0.71434  0.16625  0.46050  1.0000
  H   H134      1.0  0.67936  0.13982  0.45410  1.0000
  H   H135      1.0  0.64484  0.13408  0.50397  1.0000
  H   H136      1.0  0.60941  0.10811  0.50088  1.0000
  H   H137      1.0  0.60855  0.07387  0.35514  1.0000
  H   H138      1.0  0.58833  0.03498  0.35596  1.0000
  H   H139      1.0  0.54756  0.05580  0.36081  1.0000
  H   H140      1.0  0.51690  0.05660  0.36293  1.0000
  H   H141      1.0  0.58957  0.13401  0.36679  1.0000
  H   H142      1.0  0.55625  0.13489  0.36778  1.0000
  H   H143      1.0  0.51116  0.11011  0.50570  1.0000
  H   H144      1.0  0.50310  0.13698  0.51410  1.0000
  H   H145      1.0  0.47614  0.07742  0.35473  1.0000
  H   H146      1.0  0.45592  0.03854  0.35392  1.0000
  H   H147      1.0  0.50821  0.97749  0.36613  1.0000
  H   H148      1.0  0.47489  0.97837  0.36595  1.0000
  H   H149      1.0  0.45518  0.00435  0.50113  1.0000
  H   H150      1.0  0.41966  0.97865  0.50421  1.0000
  H   H151      1.0  0.35018  0.94743  0.45986  1.0000
  H   H152      1.0  0.38531  0.97348  0.45356  1.0000
  H   H153      1.0  0.54138  0.93600  0.48413  1.0000
  H   H154      1.0  0.54802  0.90831  0.49672  1.0000
  H   H155      1.0  0.55913  0.97349  0.51354  1.0000
  H   H156      1.0  0.55150  0.00069  0.50550  1.0000
  H   H157      1.0  0.52064  0.17470  0.49177  1.0000
  H   H158      1.0  0.51336  0.20193  0.50473  1.0000
  C   C245      1.0  0.57396  0.90204  0.40283  1.0000
  C   C246      1.0  0.33190  0.91128  0.37904  1.0000
  C   C247      1.0  0.48849  0.20893  0.40506  1.0000
  C   C248      1.0  0.73210  0.20241  0.37896  1.0000
  H   H159      1.0  0.57414  0.89707  0.46446  1.0000
  H   H160      1.0  0.74137  0.20038  0.42019  1.0000
  H   H161      1.0  0.48769  0.21337  0.46680  1.0000
  H   H162      1.0  0.32282  0.91339  0.42065  1.0000
  C   C249      1.0  0.26344  0.50454  0.32974  1.0000
  C   C250      1.0  0.26775  0.49210  0.38787  1.0000
  C   C251      1.0  0.28770  0.49460  0.38743  1.0000
  H   H163      1.0  0.29094  0.48575  0.42910  1.0000
  C   C252      1.0  0.24457  0.50475  0.33168  1.0000
  C   C253      1.0  0.20852  0.50816  0.33371  1.0000
  C   C254      1.0  0.22038  0.51191  0.41273  1.0000
  C   C255      1.0  0.23824  0.51018  0.41061  1.0000
  H   H164      1.0  0.24700  0.51343  0.46730  1.0000
  N   N31       1.0  0.21450  0.51788  0.49180  1.0000
  N   N32       1.0  0.25339  0.47756  0.44266  1.0000
  H   H165      1.0  0.25660  0.46900  0.48064  1.0000
  H   H166      1.0  0.23917  0.47430  0.44163  1.0000
  O   O13       1.0  0.21088  0.50528  0.55413  1.0000
  O   O14       1.0  0.22807  0.53538  0.51734  1.0000
  N   N33       1.0  0.19258  0.51129  0.33238  1.0000
  C   C256      1.0  0.58256  0.84059  0.33340  1.0000
  C   C257      1.0  0.59498  0.85723  0.39158  1.0000
  C   C258      1.0  0.59247  0.87468  0.39116  1.0000
  H   H167      1.0  0.60130  0.88669  0.43285  1.0000
  C   C259      1.0  0.58235  0.82150  0.33539  1.0000
  C   C260      1.0  0.57893  0.78204  0.33751  1.0000
  C   C261      1.0  0.57519  0.79002  0.41650  1.0000
  C   C262      1.0  0.57692  0.80962  0.41433  1.0000
  H   H168      1.0  0.57367  0.81502  0.47101  1.0000
  N   N34       1.0  0.56921  0.77803  0.49558  1.0000
  N   N35       1.0  0.60952  0.85732  0.44640  1.0000
  H   H169      1.0  0.61807  0.86903  0.48442  1.0000
  H   H170      1.0  0.61279  0.84637  0.44536  1.0000
  O   O15       1.0  0.58181  0.78691  0.55792  1.0000
  O   O16       1.0  0.55171  0.77406  0.52109  1.0000
  N   N36       1.0  0.57580  0.76297  0.33618  1.0000
  C   C263      1.0  0.22975  0.81930  0.38562  1.0000
  C   C264      1.0  0.21231  0.79934  0.38456  1.0000
  H   H171      1.0  0.20025  0.79602  0.42603  1.0000
  C   C265      1.0  0.26558  0.84256  0.33067  1.0000
  C   C266      1.0  0.30506  0.87858  0.33451  1.0000
  C   C267      1.0  0.29691  0.86658  0.41308  1.0000
  C   C268      1.0  0.27730  0.84874  0.41006  1.0000
  H   H172      1.0  0.27179  0.83989  0.46643  1.0000
  N   N37       1.0  0.30875  0.87231  0.49260  1.0000
  N   N38       1.0  0.22959  0.83357  0.44073  1.0000
  H   H173      1.0  0.21777  0.83032  0.47801  1.0000
  H   H174      1.0  0.24048  0.84782  0.43963  1.0000
  O   O17       1.0  0.29976  0.87583  0.55474  1.0000
  O   O18       1.0  0.31264  0.85868  0.51798  1.0000
  N   N39       1.0  0.32413  0.89450  0.33402  1.0000
  C   C269      1.0  0.79619  0.60746  0.33103  1.0000
  C   C270      1.0  0.79186  0.61984  0.38872  1.0000
  C   C271      1.0  0.77181  0.61709  0.38870  1.0000
  H   H175      1.0  0.76857  0.62590  0.43002  1.0000
  C   C272      1.0  0.81521  0.60753  0.33266  1.0000
  C   C273      1.0  0.85160  0.60473  0.33430  1.0000
  C   C274      1.0  0.83992  0.60089  0.41360  1.0000
  C   C275      1.0  0.82189  0.60232  0.41167  1.0000
  H   H176      1.0  0.81328  0.59903  0.46862  1.0000
  N   N40       1.0  0.84618  0.59514  0.49278  1.0000
  N   N41       1.0  0.80629  0.63455  0.44271  1.0000
  H   H177      1.0  0.80306  0.64310  0.48017  1.0000
  H   H178      1.0  0.82057  0.63801  0.44112  1.0000
  O   O19       1.0  0.84978  0.60776  0.55465  1.0000
  O   O20       1.0  0.83285  0.57760  0.51908  1.0000
  N   N42       1.0  0.86773  0.60192  0.33287  1.0000
  C   C276      1.0  0.47961  0.27040  0.33489  1.0000
  C   C277      1.0  0.46722  0.25358  0.39252  1.0000
  C   C278      1.0  0.46997  0.23628  0.39246  1.0000
  H   H179      1.0  0.46115  0.22415  0.43373  1.0000
  C   C279      1.0  0.47954  0.28934  0.33651  1.0000
  C   C280      1.0  0.48233  0.32853  0.33808  1.0000
  C   C281      1.0  0.48617  0.32055  0.41741  1.0000
  C   C282      1.0  0.48474  0.30109  0.41551  1.0000
  H   H180      1.0  0.48804  0.29569  0.47245  1.0000
  N   N43       1.0  0.49192  0.33243  0.49656  1.0000
  N   N44       1.0  0.45250  0.25319  0.44644  1.0000
  H   H181      1.0  0.44398  0.24137  0.48408  1.0000
  H   H182      1.0  0.44907  0.26404  0.44509  1.0000
  O   O21       1.0  0.47931  0.32331  0.55844  1.0000
  O   O22       1.0  0.50947  0.33660  0.52285  1.0000
  N   N45       1.0  0.48514  0.34748  0.33663  1.0000
  C   C283      1.0  0.83359  0.29520  0.38646  1.0000
  C   C284      1.0  0.85088  0.31525  0.38579  1.0000
  H   H183      1.0  0.86308  0.31855  0.42675  1.0000
  C   C285      1.0  0.79772  0.27180  0.33177  1.0000
  C   C286      1.0  0.75852  0.23542  0.33514  1.0000
  C   C287      1.0  0.76666  0.24724  0.41400  1.0000
  C   C288      1.0  0.78613  0.26526  0.41121  1.0000
  H   H184      1.0  0.79164  0.27396  0.46784  1.0000
  N   N46       1.0  0.75494  0.24114  0.49359  1.0000
  N   N47       1.0  0.83406  0.28083  0.44055  1.0000
  H   H185      1.0  0.84594  0.28412  0.47787  1.0000
  H   H186      1.0  0.82322  0.26657  0.43961  1.0000
  O   O23       1.0  0.76416  0.23763  0.55532  1.0000
  O   O24       1.0  0.75083  0.25453  0.51968  1.0000
  N   N48       1.0  0.73956  0.21930  0.33448  1.0000
