data_image0
_chemical_formula_structural       N2C4HC2HC2H2CHC2HCHCHC2HC6H3CHC2HC6H3CHC2HC6H3CHC2HC6H3CHC2HC6H3CHC2HC6H3CHC2NC2NHCH3CHC2NC2NHCH3CHC2NC2H3CHC2NC2NHCH3CHC2NC2NHCH3CHCNHCHC2NC2NHCH3CHC2NC2NHCH3CHC2NC2NHCH3CHC2NC2NHCH3CHC2NC2NHCH3CHC2NC2NHCH3CHC6H3N3C6H3N3C6H3N3C6H3N3C6H3N3C6H3N3C6H3N3C6H3N3C6H3N3C6H3N3C6H3N3C6H3N3C2NC2NHCH3CHC2NC2NHCH3CHC2NC2NHCH3CHC2NC2NHCH3CHC2NC2NHCH3CHC2NC2NHCH3CHC2HC6H3CHC2HC6H3CHC2HCHCHC2HC6H3CHC2HC6H3CHC5H2CHC2HC6H3CHC2HC6H3CHC2HC6H3CHC2HC6H3CHC2HC6H3CHC2HC6H3CH
_chemical_formula_sum              "N72 C342 H216"
_cell_length_a       74.2742
_cell_length_b       74.2742
_cell_length_c       14.9738
_cell_angle_alpha    90
_cell_angle_beta     90
_cell_angle_gamma    120

_space_group_name_H-M_alt    "P 1"
_space_group_IT_number       1

loop_
  _space_group_symop_operation_xyz
  'x, y, z'

loop_
  _atom_site_type_symbol
  _atom_site_label
  _atom_site_symmetry_multiplicity
  _atom_site_fract_x
  _atom_site_fract_y
  _atom_site_fract_z
  _atom_site_occupancy
  N   N1        1.0  0.02207  0.80812  0.27288  1.0000
  N   N2        1.0  0.01926  0.20195  0.24910  1.0000
  C   C1        1.0  0.01069  0.19753  0.33197  1.0000
  C   C2        1.0  0.00921  0.80400  0.34401  1.0000
  C   C3        1.0  0.01778  0.80833  0.43149  1.0000
  C   C4        1.0  0.00458  0.80426  0.50576  1.0000
  H   H1        1.0  0.01049  0.80732  0.56921  1.0000
  C   C5        1.0  0.02385  0.20157  0.40696  1.0000
  C   C6        1.0  0.01518  0.19708  0.49360  1.0000
  H   H2        1.0  0.02444  0.19988  0.54845  1.0000
  C   C7        1.0  0.04292  0.81625  0.28071  1.0000
  C   C8        1.0  0.03986  0.20999  0.23182  1.0000
  H   H3        1.0  0.04103  0.22431  0.10838  1.0000
  H   H4        1.0  0.03811  0.19917  0.09984  1.0000
  C   C9        1.0  0.03942  0.81659  0.44138  1.0000
  H   H5        1.0  0.05149  0.81871  0.22393  1.0000
  C   C10       1.0  0.05369  0.21422  0.30470  1.0000
  C   C11       1.0  0.04588  0.21383  0.13640  1.0000
  H   H6        1.0  0.06258  0.22085  0.12598  1.0000
  C   C12       1.0  0.05236  0.82076  0.36591  1.0000
  H   H7        1.0  0.04582  0.81969  0.50409  1.0000
  C   C13       1.0  0.04533  0.20987  0.39215  1.0000
  H   H8        1.0  0.05493  0.21251  0.44577  1.0000
  C   C14       1.0  0.20244  0.41520  0.27064  1.0000
  C   C15       1.0  0.21308  0.43678  0.28760  1.0000
  H   H9        1.0  0.21550  0.44683  0.23601  1.0000
  C   C16       1.0  0.18721  0.37970  0.32938  1.0000
  C   C17       1.0  0.16340  0.33625  0.30491  1.0000
  C   C18       1.0  0.16776  0.34986  0.23169  1.0000
  C   C19       1.0  0.17971  0.37163  0.24272  1.0000
  C   C20       1.0  0.18395  0.38544  0.17065  1.0000
  C   C21       1.0  0.19526  0.40706  0.18447  1.0000
  H   H10       1.0  0.17860  0.37990  0.10786  1.0000
  H   H11       1.0  0.19788  0.41676  0.13145  1.0000
  H   H12       1.0  0.16199  0.34388  0.16974  1.0000
  C   C22       1.0  0.15058  0.31500  0.29373  1.0000
  H   H13       1.0  0.13934  0.31004  0.24807  1.0000
  C   C23       1.0  0.58045  0.78113  0.27070  1.0000
  C   C24       1.0  0.55887  0.77019  0.28760  1.0000
  H   H14       1.0  0.54883  0.76257  0.23599  1.0000
  C   C25       1.0  0.61595  0.80139  0.32953  1.0000
  C   C26       1.0  0.65940  0.82105  0.30514  1.0000
  C   C27       1.0  0.64580  0.81180  0.23190  1.0000
  C   C28       1.0  0.62403  0.80197  0.24288  1.0000
  C   C29       1.0  0.61022  0.79240  0.17078  1.0000
  C   C30       1.0  0.58861  0.78209  0.18455  1.0000
  H   H15       1.0  0.61578  0.79263  0.10798  1.0000
  H   H16       1.0  0.57891  0.77503  0.13149  1.0000
  H   H17       1.0  0.65178  0.81201  0.16995  1.0000
  C   C31       1.0  0.68066  0.82947  0.29403  1.0000
  H   H18       1.0  0.68561  0.82318  0.24836  1.0000
  C   C32       1.0  0.21454  0.79324  0.27069  1.0000
  C   C33       1.0  0.22547  0.78260  0.28764  1.0000
  H   H19       1.0  0.23311  0.78018  0.23605  1.0000
  C   C34       1.0  0.19426  0.80847  0.32944  1.0000
  C   C35       1.0  0.17461  0.83226  0.30498  1.0000
  C   C36       1.0  0.18386  0.82791  0.23175  1.0000
  C   C37       1.0  0.19370  0.81597  0.24278  1.0000
  C   C38       1.0  0.20327  0.81173  0.17071  1.0000
  C   C39       1.0  0.21358  0.80043  0.18453  1.0000
  H   H20       1.0  0.20305  0.81706  0.10791  1.0000
  H   H21       1.0  0.22065  0.79779  0.13149  1.0000
  H   H22       1.0  0.18366  0.83368  0.16980  1.0000
  C   C40       1.0  0.16617  0.84509  0.29381  1.0000
  H   H23       1.0  0.17246  0.85632  0.24814  1.0000
  C   C41       1.0  0.79583  0.57785  0.27060  1.0000
  C   C42       1.0  0.78519  0.55627  0.28752  1.0000
  H   H24       1.0  0.78278  0.54623  0.23592  1.0000
  C   C43       1.0  0.81106  0.61335  0.32940  1.0000
  C   C44       1.0  0.83487  0.65680  0.30499  1.0000
  C   C45       1.0  0.83051  0.64320  0.23175  1.0000
  C   C46       1.0  0.81857  0.62143  0.24275  1.0000
  C   C47       1.0  0.81433  0.60762  0.17066  1.0000
  C   C48       1.0  0.80302  0.58601  0.18444  1.0000
  H   H25       1.0  0.81967  0.61317  0.10787  1.0000
  H   H26       1.0  0.80039  0.57630  0.13140  1.0000
  H   H27       1.0  0.83628  0.64918  0.16980  1.0000
  C   C49       1.0  0.84769  0.67806  0.29385  1.0000
  H   H28       1.0  0.85893  0.68302  0.24816  1.0000
  C   C50       1.0  0.41781  0.21191  0.27063  1.0000
  C   C51       1.0  0.43939  0.22284  0.28756  1.0000
  H   H29       1.0  0.44944  0.23048  0.23597  1.0000
  C   C52       1.0  0.38231  0.19163  0.32940  1.0000
  C   C53       1.0  0.33886  0.17198  0.30495  1.0000
  C   C54       1.0  0.35247  0.18124  0.23173  1.0000
  C   C55       1.0  0.37424  0.19107  0.24274  1.0000
  C   C56       1.0  0.38805  0.20064  0.17066  1.0000
  C   C57       1.0  0.40966  0.21095  0.18447  1.0000
  H   H30       1.0  0.38250  0.20042  0.10786  1.0000
  H   H31       1.0  0.41937  0.21802  0.13142  1.0000
  H   H32       1.0  0.34649  0.18103  0.16978  1.0000
  C   C58       1.0  0.31761  0.16356  0.29382  1.0000
  H   H33       1.0  0.31265  0.16984  0.24813  1.0000
  C   C59       1.0  0.78374  0.19981  0.27071  1.0000
  C   C60       1.0  0.77279  0.21044  0.28762  1.0000
  H   H34       1.0  0.76517  0.21286  0.23601  1.0000
  C   C61       1.0  0.80401  0.18458  0.32949  1.0000
  C   C62       1.0  0.82367  0.16079  0.30508  1.0000
  C   C63       1.0  0.81441  0.16514  0.23185  1.0000
  C   C64       1.0  0.80458  0.17708  0.24284  1.0000
  C   C65       1.0  0.79501  0.18131  0.17075  1.0000
  C   C66       1.0  0.78471  0.19262  0.18454  1.0000
  H   H35       1.0  0.79523  0.17597  0.10796  1.0000
  H   H36       1.0  0.77762  0.19524  0.13150  1.0000
  H   H37       1.0  0.81462  0.15936  0.16990  1.0000
  C   C67       1.0  0.83210  0.14796  0.29393  1.0000
  H   H38       1.0  0.82581  0.13672  0.24827  1.0000
  C   C68       1.0  0.21681  0.15964  0.30463  1.0000
  C   C69       1.0  0.21260  0.16925  0.23175  1.0000
  N   N3        1.0  0.20456  0.18181  0.24900  1.0000
  C   C70       1.0  0.20014  0.18597  0.33187  1.0000
  C   C71       1.0  0.17941  0.22056  0.28058  1.0000
  N   N4        1.0  0.18753  0.20785  0.27278  1.0000
  H   H39       1.0  0.17696  0.22668  0.22378  1.0000
  C   C72       1.0  0.21645  0.16708  0.13633  1.0000
  H   H40       1.0  0.22346  0.15739  0.12592  1.0000
  H   H41       1.0  0.22694  0.18241  0.10833  1.0000
  H   H42       1.0  0.20178  0.16019  0.09974  1.0000
  C   C73       1.0  0.22380  0.14569  0.29305  1.0000
  H   H43       1.0  0.21531  0.13304  0.25643  1.0000
  C   C74       1.0  0.83601  0.05108  0.30461  1.0000
  C   C75       1.0  0.82638  0.03725  0.23174  1.0000
  N   N5        1.0  0.81383  0.01665  0.24900  1.0000
  C   C76       1.0  0.80968  0.00807  0.33187  1.0000
  C   C77       1.0  0.77508  0.95275  0.28062  1.0000
  N   N6        1.0  0.78779  0.97359  0.27280  1.0000
  H   H44       1.0  0.76895  0.94418  0.22384  1.0000
  C   C78       1.0  0.82855  0.04327  0.13631  1.0000
  H   H45       1.0  0.83824  0.05997  0.12590  1.0000
  H   H46       1.0  0.81322  0.03843  0.10833  1.0000
  H   H47       1.0  0.83544  0.03550  0.09973  1.0000
  C   C79       1.0  0.84995  0.07201  0.29302  1.0000
  H   H48       1.0  0.86259  0.07617  0.25634  1.0000
  C   C80       1.0  0.94458  0.77882  0.30463  1.0000
  C   C81       1.0  0.95842  0.78305  0.23177  1.0000
  N   N7        1.0  0.97902  0.79110  0.24904  1.0000
  C   C82       1.0  0.98759  0.79551  0.33192  1.0000
  C   C83       1.0  0.95240  0.77921  0.13633  1.0000
  H   H49       1.0  0.93570  0.77220  0.12591  1.0000
  H   H50       1.0  0.95725  0.76874  0.10832  1.0000
  H   H51       1.0  0.96017  0.79388  0.09979  1.0000
  C   C84       1.0  0.92365  0.77185  0.29304  1.0000
  H   H52       1.0  0.91950  0.78034  0.25641  1.0000
  C   C85       1.0  0.78146  0.83341  0.30464  1.0000
  C   C86       1.0  0.78568  0.82379  0.23177  1.0000
  N   N8        1.0  0.79372  0.81124  0.24904  1.0000
  C   C87       1.0  0.79813  0.80708  0.33192  1.0000
  C   C88       1.0  0.81887  0.77249  0.28070  1.0000
  N   N9        1.0  0.81075  0.78521  0.27286  1.0000
  H   H53       1.0  0.82133  0.76637  0.22392  1.0000
  C   C89       1.0  0.78182  0.82596  0.13634  1.0000
  H   H54       1.0  0.77482  0.83565  0.12591  1.0000
  H   H55       1.0  0.77134  0.81063  0.10834  1.0000
  H   H56       1.0  0.79649  0.83286  0.09977  1.0000
  C   C90       1.0  0.77446  0.84735  0.29303  1.0000
  H   H57       1.0  0.78295  0.85999  0.25637  1.0000
  C   C91       1.0  0.16227  0.94197  0.30467  1.0000
  C   C92       1.0  0.17189  0.95580  0.23179  1.0000
  N   N10       1.0  0.18444  0.97639  0.24906  1.0000
  C   C93       1.0  0.18860  0.98497  0.33193  1.0000
  C   C94       1.0  0.22319  0.04029  0.28068  1.0000
  N   N11       1.0  0.21047  0.01945  0.27286  1.0000
  H   H58       1.0  0.22931  0.04887  0.22390  1.0000
  C   C95       1.0  0.16971  0.94977  0.13637  1.0000
  H   H59       1.0  0.16002  0.93307  0.12595  1.0000
  H   H60       1.0  0.18504  0.95461  0.10836  1.0000
  H   H61       1.0  0.16282  0.95754  0.09979  1.0000
  C   C96       1.0  0.14831  0.92103  0.29309  1.0000
  H   H62       1.0  0.13567  0.91687  0.25642  1.0000
  C   C97       1.0  0.95536  0.17679  0.28073  1.0000
  N   N12       1.0  0.97620  0.18492  0.27291  1.0000
  H   H63       1.0  0.94678  0.17433  0.22395  1.0000
  C   C98       1.0  0.07462  0.22119  0.29311  1.0000
  H   H64       1.0  0.07877  0.21270  0.25648  1.0000
  C   C99       1.0  0.23750  0.56991  0.30089  1.0000
  C   C100      1.0  0.23384  0.57959  0.22647  1.0000
  N   N13       1.0  0.22826  0.59419  0.24138  1.0000
  C   C101      1.0  0.22555  0.60022  0.32341  1.0000
  C   C102      1.0  0.21902  0.64462  0.26539  1.0000
  N   N14       1.0  0.22094  0.62743  0.26016  1.0000
  H   H65       1.0  0.21942  0.65216  0.20763  1.0000
  C   C103      1.0  0.23638  0.57529  0.13204  1.0000
  H   H66       1.0  0.22671  0.55870  0.11844  1.0000
  H   H67       1.0  0.25260  0.58007  0.11861  1.0000
  H   H68       1.0  0.23178  0.58370  0.08610  1.0000
  C   C104      1.0  0.24698  0.55794  0.29077  1.0000
  H   H69       1.0  0.25762  0.56200  0.24291  1.0000
  C   C105      1.0  0.42573  0.66150  0.30037  1.0000
  C   C106      1.0  0.41607  0.64812  0.22604  1.0000
  N   N15       1.0  0.40148  0.62794  0.24108  1.0000
  C   C107      1.0  0.39544  0.61924  0.32317  1.0000
  C   C108      1.0  0.35110  0.56826  0.26536  1.0000
  N   N16       1.0  0.36827  0.58737  0.26007  1.0000
  H   H70       1.0  0.34357  0.56109  0.20760  1.0000
  C   C109      1.0  0.42037  0.65492  0.13156  1.0000
  H   H71       1.0  0.43696  0.66185  0.11800  1.0000
  H   H72       1.0  0.41558  0.66636  0.11800  1.0000
  H   H73       1.0  0.41197  0.64189  0.08571  1.0000
  C   C110      1.0  0.43771  0.68294  0.29013  1.0000
  H   H74       1.0  0.43367  0.68951  0.24212  1.0000
  C   C111      1.0  0.33417  0.75817  0.30051  1.0000
  C   C112      1.0  0.34754  0.76187  0.22616  1.0000
  N   N17       1.0  0.36772  0.76746  0.24119  1.0000
  C   C113      1.0  0.37644  0.77015  0.32327  1.0000
  C   C114      1.0  0.42738  0.77670  0.26548  1.0000
  N   N18       1.0  0.40828  0.77478  0.26017  1.0000
  H   H75       1.0  0.43453  0.77629  0.20775  1.0000
  C   C115      1.0  0.34073  0.75933  0.13169  1.0000
  H   H76       1.0  0.33380  0.76899  0.11806  1.0000
  H   H77       1.0  0.32931  0.74311  0.11820  1.0000
  H   H78       1.0  0.35376  0.76396  0.08584  1.0000
  C   C116      1.0  0.31273  0.74870  0.29025  1.0000
  H   H79       1.0  0.30617  0.73807  0.24231  1.0000
  C   C117      1.0  0.76081  0.42315  0.30059  1.0000
  C   C118      1.0  0.76445  0.41344  0.22622  1.0000
  N   N19       1.0  0.77003  0.39885  0.24119  1.0000
  C   C119      1.0  0.77275  0.39284  0.32324  1.0000
  C   C120      1.0  0.77928  0.34843  0.26539  1.0000
  N   N20       1.0  0.77735  0.36560  0.26011  1.0000
  H   H80       1.0  0.77882  0.34085  0.20767  1.0000
  C   C121      1.0  0.76190  0.41772  0.13176  1.0000
  H   H81       1.0  0.77158  0.43431  0.11809  1.0000
  H   H82       1.0  0.74568  0.41295  0.11837  1.0000
  H   H83       1.0  0.76649  0.40929  0.08586  1.0000
  C   C122      1.0  0.75135  0.43513  0.29039  1.0000
  H   H84       1.0  0.74069  0.43107  0.24256  1.0000
  C   C123      1.0  0.57252  0.33155  0.30073  1.0000
  C   C124      1.0  0.58220  0.34491  0.22637  1.0000
  N   N21       1.0  0.59679  0.36508  0.24133  1.0000
  C   C125      1.0  0.60282  0.37382  0.32337  1.0000
  C   C126      1.0  0.64720  0.42476  0.26541  1.0000
  N   N22       1.0  0.63002  0.40566  0.26017  1.0000
  H   H85       1.0  0.65474  0.43191  0.20765  1.0000
  C   C127      1.0  0.57790  0.33808  0.13193  1.0000
  H   H86       1.0  0.56130  0.33115  0.11835  1.0000
  H   H87       1.0  0.58268  0.32664  0.11846  1.0000
  H   H88       1.0  0.58630  0.35109  0.08602  1.0000
  C   C128      1.0  0.56057  0.31010  0.29064  1.0000
  H   H89       1.0  0.56464  0.30352  0.24278  1.0000
  C   C129      1.0  0.66410  0.23488  0.30049  1.0000
  C   C130      1.0  0.65073  0.23118  0.22614  1.0000
  N   N23       1.0  0.63055  0.22560  0.24116  1.0000
  C   C131      1.0  0.62184  0.22293  0.32324  1.0000
  C   C132      1.0  0.57087  0.21630  0.26536  1.0000
  N   N24       1.0  0.58999  0.21826  0.26009  1.0000
  H   H90       1.0  0.56372  0.21668  0.20761  1.0000
  C   C133      1.0  0.65754  0.23369  0.13167  1.0000
  H   H91       1.0  0.66446  0.22402  0.11809  1.0000
  H   H92       1.0  0.66897  0.24991  0.11812  1.0000
  H   H93       1.0  0.64451  0.22907  0.08581  1.0000
  C   C134      1.0  0.68554  0.24435  0.29022  1.0000
  H   H94       1.0  0.69212  0.25496  0.24222  1.0000
  C   C135      1.0  0.10908  0.24790  0.32695  1.0000
  C   C136      1.0  0.12022  0.26980  0.33229  1.0000
  C   C137      1.0  0.14221  0.28097  0.33415  1.0000
  C   C138      1.0  0.15300  0.26983  0.33519  1.0000
  C   C139      1.0  0.14217  0.24787  0.33158  1.0000
  C   C140      1.0  0.12028  0.23711  0.32604  1.0000
  H   H95       1.0  0.16891  0.27780  0.33694  1.0000
  H   H96       1.0  0.11239  0.22120  0.32454  1.0000
  H   H97       1.0  0.11225  0.27774  0.33442  1.0000
  N   N25       1.0  0.08843  0.23844  0.32803  1.0000
  N   N26       1.0  0.15318  0.30162  0.33801  1.0000
  N   N27       1.0  0.15174  0.23680  0.32988  1.0000
  C   C141      1.0  0.74775  0.85509  0.32693  1.0000
  C   C142      1.0  0.72586  0.84433  0.33242  1.0000
  C   C143      1.0  0.71468  0.85514  0.33439  1.0000
  C   C144      1.0  0.72581  0.87706  0.33540  1.0000
  C   C145      1.0  0.74778  0.88821  0.33169  1.0000
  C   C146      1.0  0.75854  0.87708  0.32614  1.0000
  H   H98       1.0  0.71784  0.88501  0.33714  1.0000
  H   H99       1.0  0.77446  0.88511  0.32451  1.0000
  H   H100      1.0  0.71793  0.82842  0.33453  1.0000
  N   N28       1.0  0.75722  0.84390  0.32802  1.0000
  N   N29       1.0  0.69403  0.84545  0.33824  1.0000
  N   N30       1.0  0.75884  0.90885  0.32998  1.0000
  C   C147      1.0  0.14057  0.88658  0.32697  1.0000
  C   C148      1.0  0.15133  0.87544  0.33232  1.0000
  C   C149      1.0  0.14052  0.85345  0.33421  1.0000
  C   C150      1.0  0.11859  0.84266  0.33528  1.0000
  C   C151      1.0  0.10745  0.85349  0.33167  1.0000
  C   C152      1.0  0.11858  0.87538  0.32611  1.0000
  H   H101      1.0  0.11064  0.82675  0.33706  1.0000
  H   H102      1.0  0.11056  0.88327  0.32461  1.0000
  H   H103      1.0  0.16724  0.88341  0.33444  1.0000
  N   N31       1.0  0.15176  0.90723  0.32806  1.0000
  N   N32       1.0  0.15020  0.84248  0.33808  1.0000
  N   N33       1.0  0.08681  0.84392  0.33004  1.0000
  C   C153      1.0  0.88919  0.74514  0.32689  1.0000
  C   C154      1.0  0.87805  0.72325  0.33235  1.0000
  C   C155      1.0  0.85606  0.71208  0.33432  1.0000
  C   C156      1.0  0.84528  0.72322  0.33538  1.0000
  C   C157      1.0  0.85611  0.74519  0.33171  1.0000
  C   C158      1.0  0.87800  0.75594  0.32614  1.0000
  H   H104      1.0  0.82936  0.71526  0.33712  1.0000
  H   H105      1.0  0.88589  0.77186  0.32455  1.0000
  H   H106      1.0  0.88602  0.71531  0.33442  1.0000
  N   N34       1.0  0.90985  0.75460  0.32798  1.0000
  N   N35       1.0  0.84509  0.69143  0.33815  1.0000
  N   N36       1.0  0.84654  0.75626  0.33005  1.0000
  C   C159      1.0  0.25051  0.13795  0.32695  1.0000
  C   C160      1.0  0.27240  0.14871  0.33229  1.0000
  C   C161      1.0  0.28358  0.13790  0.33418  1.0000
  C   C162      1.0  0.27245  0.11597  0.33525  1.0000
  C   C163      1.0  0.25048  0.10483  0.33165  1.0000
  C   C164      1.0  0.23971  0.11596  0.32608  1.0000
  H   H107      1.0  0.28041  0.10802  0.33702  1.0000
  H   H108      1.0  0.22380  0.10794  0.32458  1.0000
  H   H109      1.0  0.28034  0.16462  0.33441  1.0000
  N   N37       1.0  0.24104  0.14914  0.32801  1.0000
  N   N38       1.0  0.30423  0.14758  0.33805  1.0000
  N   N39       1.0  0.23941  0.08419  0.32999  1.0000
  C   C165      1.0  0.85770  0.10647  0.32691  1.0000
  C   C166      1.0  0.84694  0.11760  0.33237  1.0000
  C   C167      1.0  0.85776  0.13959  0.33434  1.0000
  C   C168      1.0  0.87968  0.15038  0.33540  1.0000
  C   C169      1.0  0.89082  0.13955  0.33172  1.0000
  C   C170      1.0  0.87969  0.11766  0.32615  1.0000
  H   H110      1.0  0.88763  0.16629  0.33715  1.0000
  H   H111      1.0  0.88771  0.10977  0.32455  1.0000
  H   H112      1.0  0.83103  0.10963  0.33446  1.0000
  N   N40       1.0  0.84650  0.08581  0.32801  1.0000
  N   N41       1.0  0.84808  0.15057  0.33819  1.0000
  N   N42       1.0  0.91146  0.14912  0.33006  1.0000
  C   C171      1.0  0.25447  0.53290  0.34582  1.0000
  C   C172      1.0  0.24357  0.51102  0.35012  1.0000
  C   C173      1.0  0.25436  0.49977  0.35124  1.0000
  C   C174      1.0  0.27631  0.51078  0.34799  1.0000
  C   C175      1.0  0.28750  0.53275  0.34672  1.0000
  C   C176      1.0  0.27642  0.54355  0.34587  1.0000
  H   H113      1.0  0.28420  0.50276  0.34669  1.0000
  H   H114      1.0  0.28444  0.55949  0.34496  1.0000
  H   H115      1.0  0.22766  0.50321  0.34954  1.0000
  N   N43       1.0  0.24423  0.54337  0.34534  1.0000
  N   N44       1.0  0.24457  0.47912  0.34839  1.0000
  N   N45       1.0  0.30799  0.54445  0.34355  1.0000
  C   C177      1.0  0.46274  0.71549  0.34509  1.0000
  C   C178      1.0  0.48462  0.72647  0.34980  1.0000
  C   C179      1.0  0.49588  0.74849  0.35073  1.0000
  C   C180      1.0  0.48489  0.75946  0.34716  1.0000
  C   C181      1.0  0.46293  0.74869  0.34550  1.0000
  C   C182      1.0  0.45211  0.72680  0.34463  1.0000
  H   H116      1.0  0.49292  0.77536  0.34573  1.0000
  H   H117      1.0  0.43617  0.71889  0.34343  1.0000
  H   H118      1.0  0.49242  0.71835  0.34948  1.0000
  N   N46       1.0  0.45227  0.69479  0.34472  1.0000
  N   N47       1.0  0.51654  0.75935  0.34812  1.0000
  N   N48       1.0  0.45125  0.75750  0.34180  1.0000
  C   C183      1.0  0.28018  0.74118  0.34513  1.0000
  C   C184      1.0  0.26920  0.75208  0.34984  1.0000
  C   C185      1.0  0.24717  0.74131  0.35087  1.0000
  C   C186      1.0  0.23621  0.71936  0.34719  1.0000
  C   C187      1.0  0.24698  0.70817  0.34548  1.0000
  C   C188      1.0  0.26887  0.71923  0.34464  1.0000
  H   H119      1.0  0.22030  0.71148  0.34576  1.0000
  H   H120      1.0  0.27677  0.71120  0.34343  1.0000
  H   H121      1.0  0.27731  0.76800  0.34960  1.0000
  N   N49       1.0  0.30088  0.75142  0.34477  1.0000
  N   N50       1.0  0.23631  0.75111  0.34824  1.0000
  N   N51       1.0  0.23816  0.68768  0.34176  1.0000
  C   C189      1.0  0.74383  0.46015  0.34554  1.0000
  C   C190      1.0  0.75473  0.48203  0.34999  1.0000
  C   C191      1.0  0.74394  0.49327  0.35097  1.0000
  C   C192      1.0  0.72198  0.48226  0.34773  1.0000
  C   C193      1.0  0.71080  0.46030  0.34639  1.0000
  C   C194      1.0  0.72188  0.44949  0.34550  1.0000
  H   H122      1.0  0.71409  0.49028  0.34641  1.0000
  H   H123      1.0  0.71387  0.43355  0.34452  1.0000
  H   H124      1.0  0.77064  0.48984  0.34934  1.0000
  N   N52       1.0  0.75408  0.44969  0.34503  1.0000
  N   N53       1.0  0.75372  0.51393  0.34823  1.0000
  N   N54       1.0  0.69031  0.44859  0.34315  1.0000
  C   C195      1.0  0.53552  0.27757  0.34558  1.0000
  C   C196      1.0  0.51363  0.26658  0.34995  1.0000
  C   C197      1.0  0.50238  0.24455  0.35107  1.0000
  C   C198      1.0  0.51338  0.23359  0.34775  1.0000
  C   C199      1.0  0.53534  0.24437  0.34640  1.0000
  C   C200      1.0  0.54616  0.26626  0.34554  1.0000
  H   H125      1.0  0.50536  0.21769  0.34644  1.0000
  H   H126      1.0  0.56210  0.27417  0.34458  1.0000
  H   H127      1.0  0.50582  0.27469  0.34942  1.0000
  N   N55       1.0  0.54598  0.29826  0.34512  1.0000
  N   N56       1.0  0.48172  0.23369  0.34826  1.0000
  N   N57       1.0  0.54704  0.23557  0.34315  1.0000
  C   C201      1.0  0.71809  0.25187  0.34518  1.0000
  C   C202      1.0  0.72907  0.24096  0.34992  1.0000
  C   C203      1.0  0.75110  0.25173  0.35079  1.0000
  C   C204      1.0  0.76206  0.27369  0.34718  1.0000
  C   C205      1.0  0.75129  0.28488  0.34554  1.0000
  C   C206      1.0  0.72941  0.27382  0.34470  1.0000
  H   H128      1.0  0.77797  0.28157  0.34572  1.0000
  H   H129      1.0  0.72150  0.28185  0.34349  1.0000
  H   H130      1.0  0.72096  0.22505  0.34954  1.0000
  N   N58       1.0  0.69739  0.24164  0.34481  1.0000
  N   N59       1.0  0.76196  0.24193  0.34816  1.0000
  N   N60       1.0  0.76011  0.30537  0.34182  1.0000
  C   C207      1.0  0.21965  0.44465  0.37492  1.0000
  C   C208      1.0  0.21544  0.43019  0.44526  1.0000
  N   N61       1.0  0.20517  0.40953  0.42594  1.0000
  C   C209      1.0  0.19848  0.40142  0.34322  1.0000
  C   C210      1.0  0.17158  0.34526  0.38912  1.0000
  N   N62       1.0  0.18285  0.36622  0.39836  1.0000
  H   H131      1.0  0.16867  0.33624  0.44480  1.0000
  C   C211      1.0  0.22128  0.43562  0.54016  1.0000
  H   H132      1.0  0.23005  0.45233  0.55191  1.0000
  H   H133      1.0  0.23087  0.42910  0.56190  1.0000
  H   H134      1.0  0.20725  0.42902  0.58115  1.0000
  C   C212      1.0  0.22809  0.46573  0.38971  1.0000
  H   H135      1.0  0.22094  0.47036  0.43229  1.0000
  C   C213      1.0  0.55100  0.76887  0.37492  1.0000
  C   C214      1.0  0.56544  0.77912  0.44529  1.0000
  N   N63       1.0  0.58611  0.78951  0.42603  1.0000
  C   C215      1.0  0.59422  0.79093  0.34333  1.0000
  C   C216      1.0  0.65038  0.82020  0.38935  1.0000
  N   N64       1.0  0.62941  0.81049  0.39854  1.0000
  H   H136      1.0  0.65939  0.82630  0.44505  1.0000
  C   C217      1.0  0.56000  0.77953  0.54018  1.0000
  H   H137      1.0  0.54328  0.77158  0.55189  1.0000
  H   H138      1.0  0.56651  0.79563  0.56190  1.0000
  H   H139      1.0  0.56660  0.77211  0.58119  1.0000
  C   C218      1.0  0.52990  0.75625  0.38964  1.0000
  H   H140      1.0  0.52525  0.74447  0.43223  1.0000
  C   C219      1.0  0.22678  0.77604  0.37497  1.0000
  C   C220      1.0  0.21653  0.78024  0.44531  1.0000
  N   N65       1.0  0.20614  0.79051  0.42600  1.0000
  C   C221      1.0  0.20472  0.79720  0.34329  1.0000
  C   C222      1.0  0.17544  0.82409  0.38919  1.0000
  N   N66       1.0  0.18515  0.81283  0.39842  1.0000
  H   H141      1.0  0.16934  0.82699  0.44487  1.0000
  C   C223      1.0  0.21611  0.77439  0.54020  1.0000
  H   H142      1.0  0.22407  0.76563  0.55194  1.0000
  H   H143      1.0  0.20001  0.76480  0.56191  1.0000
  H   H144      1.0  0.22353  0.78841  0.58121  1.0000
  C   C224      1.0  0.23940  0.76757  0.38972  1.0000
  H   H145      1.0  0.25120  0.77472  0.43226  1.0000
  C   C225      1.0  0.77863  0.54840  0.37484  1.0000
  C   C226      1.0  0.78284  0.56284  0.44520  1.0000
  N   N67       1.0  0.79310  0.58351  0.42592  1.0000
  C   C227      1.0  0.79979  0.59162  0.34321  1.0000
  C   C228      1.0  0.82669  0.64779  0.38919  1.0000
  N   N68       1.0  0.81542  0.62682  0.39840  1.0000
  H   H146      1.0  0.82959  0.65680  0.44488  1.0000
  C   C229      1.0  0.77701  0.55741  0.54011  1.0000
  H   H147      1.0  0.76824  0.54070  0.55182  1.0000
  H   H148      1.0  0.76742  0.56392  0.56188  1.0000
  H   H149      1.0  0.79103  0.56401  0.58108  1.0000
  C   C230      1.0  0.77020  0.52732  0.38958  1.0000
  H   H150      1.0  0.77735  0.52268  0.43213  1.0000
  C   C231      1.0  0.44726  0.22415  0.37490  1.0000
  C   C232      1.0  0.43281  0.21390  0.44523  1.0000
  N   N69       1.0  0.41215  0.20350  0.42594  1.0000
  C   C233      1.0  0.40404  0.20209  0.34323  1.0000
  C   C234      1.0  0.34787  0.17283  0.38917  1.0000
  N   N70       1.0  0.36884  0.18253  0.39839  1.0000
  H   H151      1.0  0.33886  0.16671  0.44485  1.0000
  C   C235      1.0  0.43824  0.21348  0.54013  1.0000
  H   H152      1.0  0.45495  0.22143  0.55187  1.0000
  H   H153      1.0  0.43173  0.19738  0.56183  1.0000
  H   H154      1.0  0.43163  0.22090  0.58114  1.0000
  C   C236      1.0  0.46835  0.23678  0.38967  1.0000
  H   H155      1.0  0.47299  0.24856  0.43229  1.0000
  C   C237      1.0  0.77149  0.21700  0.37494  1.0000
  C   C238      1.0  0.78173  0.21281  0.44530  1.0000
  N   N71       1.0  0.79213  0.20254  0.42602  1.0000
  C   C239      1.0  0.79355  0.19585  0.34331  1.0000
  C   C240      1.0  0.82283  0.16896  0.38928  1.0000
  N   N72       1.0  0.81312  0.18022  0.39849  1.0000
  H   H156      1.0  0.82893  0.16606  0.44497  1.0000
  C   C241      1.0  0.78215  0.21866  0.54019  1.0000
  H   H157      1.0  0.77419  0.22742  0.55190  1.0000
  H   H158      1.0  0.79825  0.22826  0.56190  1.0000
  H   H159      1.0  0.77473  0.20464  0.58120  1.0000
  C   C242      1.0  0.75886  0.22547  0.38966  1.0000
  H   H160      1.0  0.74707  0.21834  0.43225  1.0000
  C   C243      1.0  0.20417  0.17684  0.40687  1.0000
  C   C244      1.0  0.21247  0.16366  0.39208  1.0000
  H   H161      1.0  0.21511  0.15670  0.44570  1.0000
  C   C245      1.0  0.19165  0.19910  0.34392  1.0000
  C   C246      1.0  0.17489  0.22549  0.36576  1.0000
  C   C247      1.0  0.17905  0.21673  0.44124  1.0000
  C   C248      1.0  0.18730  0.20334  0.43139  1.0000
  C   C249      1.0  0.19137  0.19421  0.50567  1.0000
  C   C250      1.0  0.19968  0.18102  0.49350  1.0000
  H   H162      1.0  0.18830  0.19706  0.56912  1.0000
  H   H163      1.0  0.20247  0.17456  0.54835  1.0000
  H   H164      1.0  0.17595  0.22002  0.50395  1.0000
  C   C251      1.0  0.16730  0.23899  0.37613  1.0000
  H   H165      1.0  0.17343  0.24987  0.42329  1.0000
  C   C252      1.0  0.81880  0.02123  0.40686  1.0000
  C   C253      1.0  0.83199  0.04272  0.39206  1.0000
  H   H166      1.0  0.83895  0.05232  0.44568  1.0000
  C   C254      1.0  0.79654  0.98646  0.34394  1.0000
  C   C255      1.0  0.77014  0.94330  0.36581  1.0000
  C   C256      1.0  0.77892  0.95623  0.44128  1.0000
  C   C257      1.0  0.79231  0.97787  0.43141  1.0000
  C   C258      1.0  0.80144  0.99108  0.50569  1.0000
  C   C259      1.0  0.81463  0.01257  0.49350  1.0000
  H   H167      1.0  0.79859  0.98516  0.56914  1.0000
  H   H168      1.0  0.82110  0.02183  0.54835  1.0000
  H   H169      1.0  0.77563  0.94984  0.50400  1.0000
  C   C260      1.0  0.75665  0.92222  0.37620  1.0000
  H   H170      1.0  0.74577  0.91747  0.42335  1.0000
  C   C261      1.0  0.97442  0.79147  0.40691  1.0000
  C   C262      1.0  0.95294  0.78317  0.39209  1.0000
  H   H171      1.0  0.94334  0.78052  0.44571  1.0000
  C   C263      1.0  0.98308  0.79595  0.49355  1.0000
  H   H172      1.0  0.97382  0.79315  0.54839  1.0000
  C   C264      1.0  0.07345  0.82837  0.37633  1.0000
  H   H173      1.0  0.07820  0.82222  0.42337  1.0000
  C   C265      1.0  0.79409  0.81620  0.40690  1.0000
  C   C266      1.0  0.78579  0.82939  0.39209  1.0000
  H   H174      1.0  0.78314  0.83634  0.44571  1.0000
  C   C267      1.0  0.80662  0.79395  0.34399  1.0000
  C   C268      1.0  0.82339  0.76756  0.36589  1.0000
  C   C269      1.0  0.81922  0.77633  0.44136  1.0000
  C   C270      1.0  0.81096  0.78971  0.43148  1.0000
  C   C271      1.0  0.80688  0.79884  0.50574  1.0000
  C   C272      1.0  0.79858  0.81202  0.49355  1.0000
  H   H175      1.0  0.80995  0.79599  0.56920  1.0000
  H   H176      1.0  0.79578  0.81849  0.54839  1.0000
  H   H177      1.0  0.82232  0.77303  0.50407  1.0000
  C   C273      1.0  0.83099  0.75408  0.37630  1.0000
  H   H178      1.0  0.82483  0.74317  0.42336  1.0000
  C   C274      1.0  0.17947  0.97181  0.40692  1.0000
  C   C275      1.0  0.16628  0.95033  0.39212  1.0000
  H   H179      1.0  0.15932  0.94072  0.44574  1.0000
  C   C276      1.0  0.20172  0.00658  0.34400  1.0000
  C   C277      1.0  0.22812  0.04974  0.36587  1.0000
  C   C278      1.0  0.21935  0.03681  0.44134  1.0000
  C   C279      1.0  0.20596  0.01517  0.43147  1.0000
  C   C280      1.0  0.19683  0.00197  0.50574  1.0000
  C   C281      1.0  0.18364  0.98047  0.49356  1.0000
  H   H180      1.0  0.19968  0.00788  0.56920  1.0000
  H   H181      1.0  0.17718  0.97121  0.54841  1.0000
  H   H182      1.0  0.22264  0.04320  0.50405  1.0000
  C   C282      1.0  0.24160  0.07083  0.37627  1.0000
  H   H183      1.0  0.25250  0.07558  0.42335  1.0000
  C   C283      1.0  0.98907  0.18904  0.34404  1.0000
  C   C284      1.0  0.94591  0.17228  0.36593  1.0000
  C   C285      1.0  0.95884  0.17644  0.44140  1.0000
  C   C286      1.0  0.98049  0.18470  0.43152  1.0000
  C   C287      1.0  0.99369  0.18878  0.50579  1.0000
  H   H184      1.0  0.98777  0.18571  0.56924  1.0000
  H   H185      1.0  0.95245  0.17334  0.50411  1.0000
  C   C288      1.0  0.92482  0.16467  0.37634  1.0000
  H   H186      1.0  0.92007  0.17083  0.42341  1.0000
  C   C289      1.0  0.22819  0.59053  0.39995  1.0000
  C   C290      1.0  0.23410  0.57535  0.38749  1.0000
  H   H187      1.0  0.23718  0.56916  0.44263  1.0000
  C   C291      1.0  0.22168  0.61690  0.33300  1.0000
  C   C292      1.0  0.21800  0.65263  0.34956  1.0000
  C   C293      1.0  0.21826  0.64183  0.42683  1.0000
  C   C294      1.0  0.22024  0.62393  0.41958  1.0000
  C   C295      1.0  0.22202  0.61364  0.49549  1.0000
  C   C296      1.0  0.22600  0.59710  0.48576  1.0000
  H   H188      1.0  0.22123  0.61860  0.55838  1.0000
  H   H189      1.0  0.22801  0.59040  0.54179  1.0000
  H   H190      1.0  0.21830  0.64775  0.48872  1.0000
  C   C297      1.0  0.22005  0.67205  0.35642  1.0000
  H   H191      1.0  0.20848  0.67374  0.37992  1.0000
  C   C298      1.0  0.40511  0.63160  0.39964  1.0000
  C   C299      1.0  0.42027  0.65269  0.38704  1.0000
  H   H192      1.0  0.42647  0.66198  0.44213  1.0000
  C   C300      1.0  0.37877  0.59869  0.33287  1.0000
  C   C301      1.0  0.34306  0.55929  0.34957  1.0000
  C   C302      1.0  0.35381  0.57039  0.42683  1.0000
  C   C303      1.0  0.37172  0.59027  0.41950  1.0000
  C   C304      1.0  0.38199  0.60238  0.49534  1.0000
  C   C305      1.0  0.39854  0.62288  0.48550  1.0000
  H   H193      1.0  0.37700  0.59666  0.55825  1.0000
  H   H194      1.0  0.40519  0.63162  0.54148  1.0000
  H   H195      1.0  0.34788  0.56453  0.48873  1.0000
  C   C306      1.0  0.32365  0.54191  0.35640  1.0000
  H   H196      1.0  0.32202  0.52843  0.37651  1.0000
  C   C307      1.0  0.36408  0.76749  0.39974  1.0000
  C   C308      1.0  0.34300  0.76157  0.38716  1.0000
  H   H197      1.0  0.33370  0.75844  0.44225  1.0000
  C   C309      1.0  0.39698  0.77402  0.33296  1.0000
  C   C310      1.0  0.43637  0.77768  0.34970  1.0000
  C   C311      1.0  0.42531  0.77742  0.42693  1.0000
  C   C312      1.0  0.40542  0.77543  0.41959  1.0000
  C   C313      1.0  0.39332  0.77363  0.49543  1.0000
  C   C314      1.0  0.37281  0.76964  0.48559  1.0000
  H   H198      1.0  0.39905  0.77437  0.55834  1.0000
  H   H199      1.0  0.36408  0.76760  0.54157  1.0000
  H   H200      1.0  0.43115  0.77732  0.48885  1.0000
  C   C315      1.0  0.45375  0.77562  0.35662  1.0000
  H   H201      1.0  0.46699  0.78717  0.38027  1.0000
  C   C316      1.0  0.77013  0.40255  0.39974  1.0000
  C   C317      1.0  0.76422  0.41772  0.38722  1.0000
  H   H202      1.0  0.76116  0.42394  0.44233  1.0000
  C   C318      1.0  0.77662  0.37616  0.33290  1.0000
  C   C319      1.0  0.78027  0.34042  0.34962  1.0000
  C   C320      1.0  0.78005  0.35124  0.42685  1.0000
  C   C321      1.0  0.77807  0.36915  0.41952  1.0000
  C   C322      1.0  0.77631  0.37947  0.49537  1.0000
  C   C323      1.0  0.77233  0.39600  0.48557  1.0000
  H   H203      1.0  0.77711  0.37452  0.55828  1.0000
  H   H204      1.0  0.77034  0.40271  0.54157  1.0000
  H   H205      1.0  0.78000  0.34533  0.48875  1.0000
  C   C324      1.0  0.77822  0.32099  0.35646  1.0000
  H   H206      1.0  0.78980  0.31931  0.37992  1.0000
  C   C325      1.0  0.59316  0.36147  0.39989  1.0000
  C   C326      1.0  0.57800  0.34037  0.38737  1.0000
  H   H207      1.0  0.57181  0.33110  0.44250  1.0000
  C   C327      1.0  0.61950  0.39436  0.33300  1.0000
  C   C328      1.0  0.65524  0.43374  0.34961  1.0000
  C   C329      1.0  0.64447  0.42268  0.42690  1.0000
  C   C330      1.0  0.62655  0.40280  0.41961  1.0000
  C   C331      1.0  0.61627  0.39072  0.49549  1.0000
  C   C332      1.0  0.59973  0.37021  0.48572  1.0000
  H   H208      1.0  0.62128  0.39644  0.55838  1.0000
  H   H209      1.0  0.59308  0.36148  0.54173  1.0000
  H   H210      1.0  0.65041  0.42854  0.48879  1.0000
  C   C333      1.0  0.67466  0.45112  0.35641  1.0000
  H   H211      1.0  0.67629  0.46455  0.37723  1.0000
  C   C334      1.0  0.63420  0.22560  0.39972  1.0000
  C   C335      1.0  0.65529  0.23152  0.38715  1.0000
  H   H212      1.0  0.66458  0.23463  0.44223  1.0000
  C   C336      1.0  0.60130  0.21906  0.33290  1.0000
  C   C337      1.0  0.56188  0.21535  0.34956  1.0000
  C   C338      1.0  0.57298  0.21570  0.42683  1.0000
  C   C339      1.0  0.59287  0.21767  0.41953  1.0000
  C   C340      1.0  0.60496  0.21949  0.49538  1.0000
  C   C341      1.0  0.62547  0.22346  0.48556  1.0000
  H   H213      1.0  0.59923  0.21874  0.55829  1.0000
  H   H214      1.0  0.63420  0.22551  0.54155  1.0000
  H   H215      1.0  0.56711  0.21575  0.48872  1.0000
  C   C342      1.0  0.54451  0.21739  0.35638  1.0000
  H   H216      1.0  0.53107  0.20560  0.37716  1.0000
