data_image0
_chemical_formula_structural       CHC3H2CHC3H2C2NC5HCHC2NC5HCHCNCH2CHCNCH2CHC4NC2NC2H2C4NC2NC2H2C2H2C2H2C2H2C2H2C2H2C2H2C3HC6H3C6H3C6H3C2H2C2H2C2H2C2H2C4NC2NC2H2C4NC2NC2H2C4NC2NC2H2C4NC2NC2H2C4NC2NC2H2C2H2C2H2C2H2C2H2C2H2C2H2C3HC6H3C6H3C6H3C2H2C2H2C2H2C2H2C4NC2NC2H2C4NC2NC2H2C4NC2NC2H2C4NC2NC2H2C4NC2NC2H2C4NC2NC2H2C2H2C2H2C2H2C2H2C2H2C2H2C6H3C6H3C6H3C6H3C2H2C2H2C2H2C2H2C2H2C2H2C4NC2NC2H2C4NC2NC2H2C4NC2NC2H2C4NC2NC2H2C4NC2NC2H2C4NC2NC2H2C2H2C2H2C2H2C2H2C2H2C2H2C6H3C6H3C6H3C6H3C2H2C2H2C2H2C2H2C2H2C2H2C4NC2NC2H2C4NC2NC2H2C4NC2NC2H2
_chemical_formula_sum              "C384 H192 N48"
_cell_length_a       45.7193
_cell_length_b       45.7404
_cell_length_c       14.8831
_cell_angle_alpha    90
_cell_angle_beta     90
_cell_angle_gamma    119.989

_space_group_name_H-M_alt    "P 1"
_space_group_IT_number       1

loop_
  _space_group_symop_operation_xyz
  'x, y, z'

loop_
  _atom_site_type_symbol
  _atom_site_label
  _atom_site_symmetry_multiplicity
  _atom_site_fract_x
  _atom_site_fract_y
  _atom_site_fract_z
  _atom_site_occupancy
  C   C1        1.0  0.07579  0.04314  0.33793  1.0000
  H   H1        1.0  0.05460  0.00464  0.02235  1.0000
  C   C2        1.0  0.03946  0.02533  0.33775  1.0000
  C   C3        1.0  0.02151  0.04313  0.34326  1.0000
  C   C4        1.0  0.02056  0.48955  0.33257  1.0000
  H   H2        1.0  0.03315  0.47630  0.33042  1.0000
  H   H3        1.0  0.03475  0.06898  0.34506  1.0000
  C   C5        1.0  0.07579  0.54314  0.33792  1.0000
  H   H4        1.0  0.05460  0.50464  0.02235  1.0000
  C   C6        1.0  0.03946  0.52533  0.33774  1.0000
  C   C7        1.0  0.02151  0.54313  0.34325  1.0000
  C   C8        1.0  0.02056  0.98955  0.33258  1.0000
  H   H5        1.0  0.03315  0.97630  0.33042  1.0000
  H   H6        1.0  0.03475  0.56898  0.34504  1.0000
  C   C9        1.0  0.13109  0.06168  0.26498  1.0000
  C   C10       1.0  0.09501  0.04406  0.26197  1.0000
  N   N1        1.0  0.07974  0.02954  0.18276  1.0000
  C   C11       1.0  0.09697  0.03070  0.10726  1.0000
  C   C12       1.0  0.13270  0.04771  0.11078  1.0000
  C   C13       1.0  0.08026  0.01608  0.02604  1.0000
  C   C14       1.0  0.09383  0.06150  0.41490  1.0000
  C   C15       1.0  0.12949  0.07914  0.41753  1.0000
  H   H7        1.0  0.08097  0.06185  0.47083  1.0000
  C   C16       1.0  0.09900  0.01786  0.61577  1.0000
  H   H8        1.0  0.08680  0.00721  0.55687  1.0000
  C   C17       1.0  0.13109  0.56168  0.26498  1.0000
  C   C18       1.0  0.09501  0.54406  0.26196  1.0000
  N   N2        1.0  0.07973  0.52954  0.18274  1.0000
  C   C19       1.0  0.09697  0.53070  0.10726  1.0000
  C   C20       1.0  0.13270  0.54771  0.11076  1.0000
  C   C21       1.0  0.08025  0.51608  0.02604  1.0000
  C   C22       1.0  0.09383  0.56150  0.41489  1.0000
  C   C23       1.0  0.12949  0.57914  0.41752  1.0000
  H   H9        1.0  0.08097  0.56185  0.47082  1.0000
  C   C24       1.0  0.09900  0.51786  0.61577  1.0000
  H   H10       1.0  0.08680  0.50721  0.55686  1.0000
  C   C25       1.0  0.14887  0.07913  0.34342  1.0000
  N   N3        1.0  0.14812  0.06252  0.18910  1.0000
  C   C26       1.0  0.15142  0.04965  0.03362  1.0000
  H   H11       1.0  0.17722  0.06216  0.03575  1.0000
  H   H12       1.0  0.14132  0.09170  0.47516  1.0000
  C   C27       1.0  0.13452  0.03457  0.61959  1.0000
  H   H13       1.0  0.14807  0.03603  0.56342  1.0000
  C   C28       1.0  0.14887  0.57913  0.34341  1.0000
  N   N4        1.0  0.14812  0.56252  0.18909  1.0000
  C   C29       1.0  0.15142  0.54964  0.03361  1.0000
  H   H14       1.0  0.17722  0.56216  0.03574  1.0000
  H   H15       1.0  0.14132  0.59170  0.47516  1.0000
  C   C30       1.0  0.13452  0.53456  0.61958  1.0000
  H   H16       1.0  0.14807  0.53603  0.56342  1.0000
  C   C31       1.0  0.43207  0.08177  0.33985  1.0000
  C   C32       1.0  0.43256  0.06382  0.26266  1.0000
  C   C33       1.0  0.45032  0.04550  0.26293  1.0000
  C   C34       1.0  0.46804  0.04476  0.34033  1.0000
  N   N5        1.0  0.45075  0.02975  0.18569  1.0000
  C   C35       1.0  0.43530  0.03060  0.10870  1.0000
  C   C36       1.0  0.41781  0.04889  0.10835  1.0000
  N   N6        1.0  0.41719  0.06460  0.18506  1.0000
  C   C37       1.0  0.43681  0.01432  0.02995  1.0000
  C   C38       1.0  0.40203  0.05088  0.02918  1.0000
  H   H17       1.0  0.44952  0.00121  0.02967  1.0000
  H   H18       1.0  0.38969  0.06434  0.02832  1.0000
  C   C39       1.0  0.42936  0.36225  0.34370  1.0000
  C   C40       1.0  0.44640  0.37946  0.26425  1.0000
  C   C41       1.0  0.46434  0.41551  0.25972  1.0000
  C   C42       1.0  0.46599  0.43526  0.33517  1.0000
  N   N7        1.0  0.47856  0.43025  0.17976  1.0000
  C   C43       1.0  0.47676  0.41248  0.10483  1.0000
  C   C44       1.0  0.45944  0.37677  0.10986  1.0000
  N   N8        1.0  0.44496  0.36190  0.18898  1.0000
  C   C45       1.0  0.49108  0.42860  0.02277  1.0000
  C   C46       1.0  0.45689  0.35750  0.03339  1.0000
  H   H19       1.0  0.50273  0.45423  0.01790  1.0000
  H   H20       1.0  0.44413  0.33172  0.03663  1.0000
  C   C47       1.0  0.27861  0.08836  0.25351  1.0000
  C   C48       1.0  0.30971  0.08900  0.25223  1.0000
  H   H21       1.0  0.32458  0.09866  0.19630  1.0000
  H   H22       1.0  0.27248  0.09772  0.19859  1.0000
  C   C49       1.0  0.25730  0.04015  0.05650  1.0000
  C   C50       1.0  0.28841  0.04076  0.05524  1.0000
  H   H23       1.0  0.24297  0.03311  0.11363  1.0000
  H   H24       1.0  0.29663  0.03420  0.11149  1.0000
  C   C51       1.0  0.42124  0.20257  0.25935  1.0000
  C   C52       1.0  0.42147  0.23344  0.26150  1.0000
  H   H25       1.0  0.41241  0.23987  0.20648  1.0000
  H   H26       1.0  0.41200  0.18799  0.20282  1.0000
  C   C53       1.0  0.46866  0.22250  0.06288  1.0000
  C   C54       1.0  0.46923  0.25356  0.06472  1.0000
  H   H27       1.0  0.47535  0.21424  0.11885  1.0000
  H   H28       1.0  0.47637  0.26783  0.12194  1.0000
  C   C55       1.0  0.30997  0.23169  0.26942  1.0000
  C   C56       1.0  0.27960  0.20057  0.26800  1.0000
  H   H29       1.0  0.27421  0.18599  0.21141  1.0000
  H   H30       1.0  0.32523  0.23815  0.21394  1.0000
  C   C57       1.0  0.28325  0.25182  0.07311  1.0000
  C   C58       1.0  0.25283  0.22066  0.07162  1.0000
  H   H31       1.0  0.29030  0.26621  0.13011  1.0000
  H   H32       1.0  0.23790  0.21246  0.12760  1.0000
  C   C59       1.0  0.48574  0.02621  0.34200  1.0000
  C   C60       1.0  0.46783  0.49043  0.33863  1.0000
  C   C61       1.0  0.48472  0.47157  0.33459  1.0000
  H   H33       1.0  0.44196  0.47787  0.33871  1.0000
  C   C62       1.0  0.23908  0.09682  0.34305  1.0000
  C   C63       1.0  0.25640  0.13234  0.34963  1.0000
  C   C64       1.0  0.23938  0.15094  0.35125  1.0000
  C   C65       1.0  0.20362  0.13294  0.35194  1.0000
  C   C66       1.0  0.18513  0.09706  0.34773  1.0000
  C   C67       1.0  0.20334  0.07941  0.34218  1.0000
  H   H34       1.0  0.19100  0.14616  0.35180  1.0000
  H   H35       1.0  0.19053  0.05364  0.33675  1.0000
  H   H36       1.0  0.28235  0.14519  0.34971  1.0000
  C   C68       1.0  0.41254  0.15306  0.34265  1.0000
  C   C69       1.0  0.37693  0.13412  0.34170  1.0000
  C   C70       1.0  0.35901  0.09854  0.33747  1.0000
  C   C71       1.0  0.37767  0.08147  0.33787  1.0000
  C   C72       1.0  0.41356  0.09951  0.34211  1.0000
  C   C73       1.0  0.43064  0.13540  0.34451  1.0000
  H   H37       1.0  0.36493  0.05566  0.33455  1.0000
  H   H38       1.0  0.45649  0.14884  0.34425  1.0000
  H   H39       1.0  0.36359  0.14672  0.34138  1.0000
  C   C74       1.0  0.35811  0.27158  0.35737  1.0000
  C   C75       1.0  0.37703  0.25489  0.35907  1.0000
  C   C76       1.0  0.41255  0.27243  0.35181  1.0000
  C   C77       1.0  0.42964  0.30811  0.34737  1.0000
  C   C78       1.0  0.41167  0.32606  0.35034  1.0000
  C   C79       1.0  0.37578  0.30731  0.35435  1.0000
  H   H40       1.0  0.45539  0.32107  0.34113  1.0000
  H   H41       1.0  0.36232  0.31967  0.35153  1.0000
  H   H42       1.0  0.36440  0.22896  0.36042  1.0000
  C   C80       1.0  0.46841  0.06374  0.41583  1.0000
  C   C81       1.0  0.45078  0.08179  0.41564  1.0000
  H   H43       1.0  0.45123  0.09460  0.47250  1.0000
  H   H44       1.0  0.48114  0.06407  0.47275  1.0000
  C   C82       1.0  0.42091  0.01632  0.61767  1.0000
  C   C83       1.0  0.40358  0.03456  0.61727  1.0000
  H   H45       1.0  0.42205  0.00458  0.56039  1.0000
  H   H46       1.0  0.39218  0.03604  0.55971  1.0000
  C   C84       1.0  0.44788  0.41779  0.41303  1.0000
  C   C85       1.0  0.42992  0.38216  0.41712  1.0000
  H   H47       1.0  0.41768  0.37076  0.47549  1.0000
  H   H48       1.0  0.44810  0.43105  0.46871  1.0000
  C   C86       1.0  0.48880  0.40930  0.61329  1.0000
  C   C87       1.0  0.47177  0.37382  0.61860  1.0000
  H   H49       1.0  0.49933  0.42108  0.55386  1.0000
  H   H50       1.0  0.46992  0.35987  0.56297  1.0000
  C   C88       1.0  0.32306  0.08254  0.33068  1.0000
  C   C89       1.0  0.30287  0.07295  0.40923  1.0000
  C   C90       1.0  0.27137  0.07240  0.41057  1.0000
  C   C91       1.0  0.25945  0.08138  0.33342  1.0000
  N   N9        1.0  0.25415  0.06518  0.48960  1.0000
  C   C92       1.0  0.26501  0.05766  0.56634  1.0000
  C   C93       1.0  0.29630  0.05824  0.56503  1.0000
  N   N10       1.0  0.31403  0.06626  0.48708  1.0000
  C   C94       1.0  0.24571  0.04892  0.64574  1.0000
  C   C95       1.0  0.30809  0.05010  0.64316  1.0000
  H   H51       1.0  0.22298  0.04813  0.64683  1.0000
  H   H52       1.0  0.33047  0.05016  0.64237  1.0000
  C   C96       1.0  0.42816  0.25222  0.34189  1.0000
  C   C97       1.0  0.43694  0.24010  0.41899  1.0000
  C   C98       1.0  0.43663  0.20872  0.41687  1.0000
  C   C99       1.0  0.42752  0.18896  0.33754  1.0000
  N   N11       1.0  0.44324  0.19736  0.49447  1.0000
  C   C100      1.0  0.45104  0.21482  0.57284  1.0000
  C   C101      1.0  0.45150  0.24604  0.57479  1.0000
  N   N12       1.0  0.44400  0.25707  0.49834  1.0000
  C   C102      1.0  0.45923  0.20290  0.65065  1.0000
  C   C103      1.0  0.46025  0.26518  0.65442  1.0000
  H   H53       1.0  0.45917  0.18052  0.64954  1.0000
  H   H54       1.0  0.46107  0.28792  0.65588  1.0000
  C   C104      1.0  0.25997  0.18687  0.34657  1.0000
  C   C105      1.0  0.27080  0.20669  0.42571  1.0000
  C   C106      1.0  0.30171  0.23823  0.42728  1.0000
  C   C107      1.0  0.32229  0.25057  0.34970  1.0000
  N   N13       1.0  0.31175  0.25527  0.50652  1.0000
  C   C108      1.0  0.29342  0.24415  0.58329  1.0000
  C   C109      1.0  0.26277  0.21282  0.58175  1.0000
  N   N14       1.0  0.25303  0.19527  0.50355  1.0000
  C   C110      1.0  0.30382  0.26340  0.66276  1.0000
  C   C111      1.0  0.24276  0.20090  0.65971  1.0000
  H   H55       1.0  0.32572  0.28620  0.66408  1.0000
  H   H56       1.0  0.22047  0.17846  0.65881  1.0000
  C   C112      1.0  0.43207  0.58177  0.33984  1.0000
  C   C113      1.0  0.43257  0.56382  0.26265  1.0000
  C   C114      1.0  0.45032  0.54551  0.26292  1.0000
  C   C115      1.0  0.46804  0.54476  0.34033  1.0000
  N   N15       1.0  0.45075  0.52975  0.18568  1.0000
  C   C116      1.0  0.43530  0.53060  0.10869  1.0000
  C   C117      1.0  0.41781  0.54889  0.10834  1.0000
  N   N16       1.0  0.41719  0.56460  0.18505  1.0000
  C   C118      1.0  0.43681  0.51432  0.02995  1.0000
  C   C119      1.0  0.40203  0.55088  0.02917  1.0000
  H   H57       1.0  0.44952  0.50121  0.02966  1.0000
  H   H58       1.0  0.38969  0.56434  0.02831  1.0000
  C   C120      1.0  0.42936  0.86225  0.34368  1.0000
  C   C121      1.0  0.44640  0.87947  0.26425  1.0000
  C   C122      1.0  0.46434  0.91552  0.25972  1.0000
  C   C123      1.0  0.46599  0.93526  0.33517  1.0000
  N   N17       1.0  0.47856  0.93026  0.17976  1.0000
  C   C124      1.0  0.47676  0.91248  0.10482  1.0000
  C   C125      1.0  0.45944  0.87677  0.10985  1.0000
  N   N18       1.0  0.44496  0.86190  0.18897  1.0000
  C   C126      1.0  0.49108  0.92861  0.02277  1.0000
  C   C127      1.0  0.45690  0.85751  0.03338  1.0000
  H   H59       1.0  0.50272  0.95424  0.01790  1.0000
  H   H60       1.0  0.44413  0.83173  0.03661  1.0000
  C   C128      1.0  0.27861  0.58836  0.25351  1.0000
  C   C129      1.0  0.30971  0.58900  0.25223  1.0000
  H   H61       1.0  0.32458  0.59866  0.19630  1.0000
  H   H62       1.0  0.27248  0.59771  0.19858  1.0000
  C   C130      1.0  0.25730  0.54015  0.05649  1.0000
  C   C131      1.0  0.28841  0.54076  0.05523  1.0000
  H   H63       1.0  0.24297  0.53311  0.11363  1.0000
  H   H64       1.0  0.29663  0.53420  0.11148  1.0000
  C   C132      1.0  0.42124  0.70257  0.25934  1.0000
  C   C133      1.0  0.42147  0.73343  0.26148  1.0000
  H   H65       1.0  0.41241  0.73986  0.20647  1.0000
  H   H66       1.0  0.41200  0.68799  0.20281  1.0000
  C   C134      1.0  0.46867  0.72250  0.06287  1.0000
  C   C135      1.0  0.46923  0.75357  0.06470  1.0000
  H   H67       1.0  0.47535  0.71424  0.11883  1.0000
  H   H68       1.0  0.47638  0.76784  0.12192  1.0000
  C   C136      1.0  0.30997  0.73169  0.26941  1.0000
  C   C137      1.0  0.27960  0.70056  0.26798  1.0000
  H   H69       1.0  0.27421  0.68599  0.21141  1.0000
  H   H70       1.0  0.32523  0.73815  0.21393  1.0000
  C   C138      1.0  0.28325  0.75183  0.07310  1.0000
  C   C139      1.0  0.25284  0.72067  0.07161  1.0000
  H   H71       1.0  0.29031  0.76622  0.13009  1.0000
  H   H72       1.0  0.23790  0.71247  0.12759  1.0000
  C   C140      1.0  0.48574  0.52621  0.34199  1.0000
  C   C141      1.0  0.46783  0.99043  0.33864  1.0000
  C   C142      1.0  0.48471  0.97157  0.33459  1.0000
  H   H73       1.0  0.44196  0.97787  0.33871  1.0000
  C   C143      1.0  0.23908  0.59682  0.34305  1.0000
  C   C144      1.0  0.25640  0.63234  0.34962  1.0000
  C   C145      1.0  0.23938  0.65094  0.35124  1.0000
  C   C146      1.0  0.20362  0.63294  0.35193  1.0000
  C   C147      1.0  0.18513  0.59706  0.34772  1.0000
  C   C148      1.0  0.20334  0.57940  0.34217  1.0000
  H   H74       1.0  0.19100  0.64616  0.35179  1.0000
  H   H75       1.0  0.19053  0.55364  0.33674  1.0000
  H   H76       1.0  0.28235  0.64519  0.34971  1.0000
  C   C149      1.0  0.41254  0.65306  0.34264  1.0000
  C   C150      1.0  0.37693  0.63412  0.34170  1.0000
  C   C151      1.0  0.35901  0.59854  0.33746  1.0000
  C   C152      1.0  0.37767  0.58147  0.33787  1.0000
  C   C153      1.0  0.41356  0.59952  0.34211  1.0000
  C   C154      1.0  0.43064  0.63540  0.34450  1.0000
  H   H77       1.0  0.36494  0.55566  0.33454  1.0000
  H   H78       1.0  0.45649  0.64884  0.34424  1.0000
  H   H79       1.0  0.36359  0.64672  0.34137  1.0000
  C   C155      1.0  0.35811  0.77158  0.35735  1.0000
  C   C156      1.0  0.37703  0.75489  0.35905  1.0000
  C   C157      1.0  0.41255  0.77243  0.35179  1.0000
  C   C158      1.0  0.42964  0.80811  0.34736  1.0000
  C   C159      1.0  0.41167  0.82606  0.35032  1.0000
  C   C160      1.0  0.37578  0.80731  0.35434  1.0000
  H   H80       1.0  0.45539  0.82107  0.34112  1.0000
  H   H81       1.0  0.36232  0.81967  0.35152  1.0000
  H   H82       1.0  0.36440  0.72896  0.36040  1.0000
  C   C161      1.0  0.46841  0.56374  0.41583  1.0000
  C   C162      1.0  0.45078  0.58179  0.41563  1.0000
  H   H83       1.0  0.45123  0.59460  0.47249  1.0000
  H   H84       1.0  0.48114  0.56407  0.47274  1.0000
  C   C163      1.0  0.42091  0.51631  0.61767  1.0000
  C   C164      1.0  0.40358  0.53456  0.61726  1.0000
  H   H85       1.0  0.42205  0.50458  0.56038  1.0000
  H   H86       1.0  0.39218  0.53604  0.55970  1.0000
  C   C165      1.0  0.44787  0.91779  0.41303  1.0000
  C   C166      1.0  0.42992  0.88216  0.41712  1.0000
  H   H87       1.0  0.41768  0.87076  0.47549  1.0000
  H   H88       1.0  0.44810  0.93104  0.46871  1.0000
  C   C167      1.0  0.48880  0.90931  0.61328  1.0000
  C   C168      1.0  0.47177  0.87383  0.61859  1.0000
  H   H89       1.0  0.49933  0.92109  0.55385  1.0000
  H   H90       1.0  0.46992  0.85988  0.56297  1.0000
  C   C169      1.0  0.32306  0.58254  0.33068  1.0000
  C   C170      1.0  0.30287  0.57295  0.40922  1.0000
  C   C171      1.0  0.27137  0.57240  0.41056  1.0000
  C   C172      1.0  0.25945  0.58139  0.33342  1.0000
  N   N19       1.0  0.25415  0.56518  0.48959  1.0000
  C   C173      1.0  0.26501  0.55766  0.56633  1.0000
  C   C174      1.0  0.29630  0.55824  0.56502  1.0000
  N   N20       1.0  0.31403  0.56626  0.48708  1.0000
  C   C175      1.0  0.24572  0.54892  0.64573  1.0000
  C   C176      1.0  0.30809  0.55010  0.64315  1.0000
  H   H91       1.0  0.22298  0.54813  0.64683  1.0000
  H   H92       1.0  0.33047  0.55016  0.64237  1.0000
  C   C177      1.0  0.42816  0.75222  0.34187  1.0000
  C   C178      1.0  0.43694  0.74010  0.41896  1.0000
  C   C179      1.0  0.43663  0.70872  0.41686  1.0000
  C   C180      1.0  0.42752  0.68895  0.33753  1.0000
  N   N21       1.0  0.44324  0.69737  0.49446  1.0000
  C   C181      1.0  0.45104  0.71482  0.57282  1.0000
  C   C182      1.0  0.45150  0.74604  0.57477  1.0000
  N   N22       1.0  0.44400  0.75707  0.49832  1.0000
  C   C183      1.0  0.45923  0.70291  0.65064  1.0000
  C   C184      1.0  0.46025  0.76519  0.65441  1.0000
  H   H93       1.0  0.45917  0.68052  0.64952  1.0000
  H   H94       1.0  0.46107  0.78792  0.65586  1.0000
  C   C185      1.0  0.25997  0.68687  0.34656  1.0000
  C   C186      1.0  0.27080  0.70669  0.42570  1.0000
  C   C187      1.0  0.30171  0.73823  0.42727  1.0000
  C   C188      1.0  0.32229  0.75057  0.34969  1.0000
  N   N23       1.0  0.31175  0.75527  0.50650  1.0000
  C   C189      1.0  0.29342  0.74416  0.58328  1.0000
  C   C190      1.0  0.26277  0.71282  0.58174  1.0000
  N   N24       1.0  0.25303  0.69527  0.50354  1.0000
  C   C191      1.0  0.30383  0.76341  0.66274  1.0000
  C   C192      1.0  0.24276  0.70090  0.65970  1.0000
  H   H95       1.0  0.32572  0.78621  0.66405  1.0000
  H   H96       1.0  0.22047  0.67846  0.65880  1.0000
  C   C193      1.0  0.64887  0.07913  0.34342  1.0000
  C   C194      1.0  0.63109  0.06168  0.26498  1.0000
  C   C195      1.0  0.59502  0.04406  0.26197  1.0000
  C   C196      1.0  0.57579  0.04314  0.33793  1.0000
  N   N25       1.0  0.57974  0.02954  0.18276  1.0000
  C   C197      1.0  0.59696  0.03070  0.10726  1.0000
  C   C198      1.0  0.63270  0.04771  0.11078  1.0000
  N   N26       1.0  0.64812  0.06252  0.18910  1.0000
  C   C199      1.0  0.58025  0.01608  0.02604  1.0000
  C   C200      1.0  0.65142  0.04965  0.03362  1.0000
  H   H97       1.0  0.55460  0.00464  0.02235  1.0000
  H   H98       1.0  0.67723  0.06216  0.03575  1.0000
  C   C201      1.0  0.93207  0.08177  0.33985  1.0000
  C   C202      1.0  0.93257  0.06382  0.26266  1.0000
  C   C203      1.0  0.95032  0.04550  0.26293  1.0000
  C   C204      1.0  0.96804  0.04476  0.34033  1.0000
  N   N27       1.0  0.95075  0.02975  0.18569  1.0000
  C   C205      1.0  0.93530  0.03060  0.10870  1.0000
  C   C206      1.0  0.91781  0.04889  0.10835  1.0000
  N   N28       1.0  0.91719  0.06460  0.18506  1.0000
  C   C207      1.0  0.93681  0.01432  0.02995  1.0000
  C   C208      1.0  0.90203  0.05088  0.02918  1.0000
  H   H99       1.0  0.94952  0.00121  0.02967  1.0000
  H   H100      1.0  0.88969  0.06434  0.02832  1.0000
  C   C209      1.0  0.92936  0.36225  0.34370  1.0000
  C   C210      1.0  0.94640  0.37946  0.26425  1.0000
  C   C211      1.0  0.96434  0.41551  0.25972  1.0000
  C   C212      1.0  0.96599  0.43526  0.33517  1.0000
  N   N29       1.0  0.97856  0.43025  0.17976  1.0000
  C   C213      1.0  0.97676  0.41248  0.10483  1.0000
  C   C214      1.0  0.95944  0.37677  0.10986  1.0000
  N   N30       1.0  0.94496  0.36190  0.18898  1.0000
  C   C215      1.0  0.99108  0.42860  0.02277  1.0000
  C   C216      1.0  0.95689  0.35750  0.03339  1.0000
  H   H101      1.0  0.00273  0.45423  0.01790  1.0000
  H   H102      1.0  0.94413  0.33172  0.03663  1.0000
  C   C217      1.0  0.77861  0.08836  0.25351  1.0000
  C   C218      1.0  0.80971  0.08900  0.25223  1.0000
  H   H103      1.0  0.82458  0.09866  0.19630  1.0000
  H   H104      1.0  0.77248  0.09772  0.19859  1.0000
  C   C219      1.0  0.75730  0.04015  0.05650  1.0000
  C   C220      1.0  0.78841  0.04076  0.05524  1.0000
  H   H105      1.0  0.74297  0.03311  0.11363  1.0000
  H   H106      1.0  0.79663  0.03420  0.11149  1.0000
  C   C221      1.0  0.92124  0.20257  0.25935  1.0000
  C   C222      1.0  0.92147  0.23344  0.26150  1.0000
  H   H107      1.0  0.91241  0.23987  0.20648  1.0000
  H   H108      1.0  0.91200  0.18799  0.20282  1.0000
  C   C223      1.0  0.96866  0.22250  0.06288  1.0000
  C   C224      1.0  0.96923  0.25356  0.06472  1.0000
  H   H109      1.0  0.97535  0.21424  0.11885  1.0000
  H   H110      1.0  0.97637  0.26783  0.12194  1.0000
  C   C225      1.0  0.80997  0.23169  0.26942  1.0000
  C   C226      1.0  0.77960  0.20057  0.26800  1.0000
  H   H111      1.0  0.77421  0.18599  0.21141  1.0000
  H   H112      1.0  0.82523  0.23815  0.21394  1.0000
  C   C227      1.0  0.78325  0.25182  0.07311  1.0000
  C   C228      1.0  0.75283  0.22066  0.07162  1.0000
  H   H113      1.0  0.79030  0.26621  0.13011  1.0000
  H   H114      1.0  0.73790  0.21246  0.12760  1.0000
  C   C229      1.0  0.53946  0.02533  0.33775  1.0000
  C   C230      1.0  0.52151  0.04313  0.34326  1.0000
  C   C231      1.0  0.98574  0.02621  0.34200  1.0000
  C   C232      1.0  0.96783  0.49043  0.33863  1.0000
  C   C233      1.0  0.98472  0.47157  0.33459  1.0000
  C   C234      1.0  0.52056  0.48955  0.33257  1.0000
  H   H115      1.0  0.94196  0.47787  0.33871  1.0000
  H   H116      1.0  0.53315  0.47630  0.33042  1.0000
  H   H117      1.0  0.53475  0.06898  0.34506  1.0000
  C   C235      1.0  0.73908  0.09682  0.34305  1.0000
  C   C236      1.0  0.75640  0.13234  0.34963  1.0000
  C   C237      1.0  0.73938  0.15094  0.35125  1.0000
  C   C238      1.0  0.70362  0.13294  0.35194  1.0000
  C   C239      1.0  0.68513  0.09706  0.34773  1.0000
  C   C240      1.0  0.70335  0.07941  0.34218  1.0000
  H   H118      1.0  0.69100  0.14616  0.35180  1.0000
  H   H119      1.0  0.69053  0.05364  0.33675  1.0000
  H   H120      1.0  0.78235  0.14519  0.34971  1.0000
  C   C241      1.0  0.91255  0.15306  0.34265  1.0000
  C   C242      1.0  0.87693  0.13412  0.34170  1.0000
  C   C243      1.0  0.85901  0.09854  0.33747  1.0000
  C   C244      1.0  0.87767  0.08147  0.33787  1.0000
  C   C245      1.0  0.91356  0.09951  0.34211  1.0000
  C   C246      1.0  0.93064  0.13540  0.34451  1.0000
  H   H121      1.0  0.86494  0.05566  0.33455  1.0000
  H   H122      1.0  0.95649  0.14884  0.34425  1.0000
  H   H123      1.0  0.86359  0.14672  0.34138  1.0000
  C   C247      1.0  0.85811  0.27158  0.35737  1.0000
  C   C248      1.0  0.87703  0.25489  0.35907  1.0000
  C   C249      1.0  0.91255  0.27243  0.35181  1.0000
  C   C250      1.0  0.92964  0.30811  0.34737  1.0000
  C   C251      1.0  0.91167  0.32606  0.35034  1.0000
  C   C252      1.0  0.87578  0.30731  0.35435  1.0000
  H   H124      1.0  0.95539  0.32107  0.34113  1.0000
  H   H125      1.0  0.86232  0.31967  0.35153  1.0000
  H   H126      1.0  0.86440  0.22896  0.36042  1.0000
  C   C253      1.0  0.59383  0.06150  0.41490  1.0000
  C   C254      1.0  0.62949  0.07914  0.41753  1.0000
  H   H127      1.0  0.64132  0.09170  0.47516  1.0000
  H   H128      1.0  0.58097  0.06185  0.47083  1.0000
  C   C255      1.0  0.59900  0.01786  0.61577  1.0000
  C   C256      1.0  0.63452  0.03457  0.61959  1.0000
  H   H129      1.0  0.58681  0.00721  0.55687  1.0000
  H   H130      1.0  0.64807  0.03603  0.56342  1.0000
  C   C257      1.0  0.96841  0.06374  0.41583  1.0000
  C   C258      1.0  0.95078  0.08179  0.41564  1.0000
  H   H131      1.0  0.95123  0.09460  0.47250  1.0000
  H   H132      1.0  0.98114  0.06407  0.47275  1.0000
  C   C259      1.0  0.92091  0.01632  0.61767  1.0000
  C   C260      1.0  0.90358  0.03456  0.61727  1.0000
  H   H133      1.0  0.92205  0.00458  0.56039  1.0000
  H   H134      1.0  0.89218  0.03604  0.55971  1.0000
  C   C261      1.0  0.94787  0.41779  0.41303  1.0000
  C   C262      1.0  0.92992  0.38216  0.41712  1.0000
  H   H135      1.0  0.91768  0.37076  0.47549  1.0000
  H   H136      1.0  0.94810  0.43105  0.46871  1.0000
  C   C263      1.0  0.98880  0.40930  0.61329  1.0000
  C   C264      1.0  0.97177  0.37382  0.61860  1.0000
  H   H137      1.0  0.99933  0.42108  0.55386  1.0000
  H   H138      1.0  0.96992  0.35987  0.56297  1.0000
  C   C265      1.0  0.82306  0.08254  0.33068  1.0000
  C   C266      1.0  0.80287  0.07295  0.40923  1.0000
  C   C267      1.0  0.77137  0.07240  0.41057  1.0000
  C   C268      1.0  0.75945  0.08138  0.33342  1.0000
  N   N31       1.0  0.75415  0.06518  0.48960  1.0000
  C   C269      1.0  0.76501  0.05766  0.56634  1.0000
  C   C270      1.0  0.79630  0.05824  0.56503  1.0000
  N   N32       1.0  0.81403  0.06626  0.48708  1.0000
  C   C271      1.0  0.74571  0.04892  0.64574  1.0000
  C   C272      1.0  0.80809  0.05010  0.64316  1.0000
  H   H139      1.0  0.72298  0.04813  0.64683  1.0000
  H   H140      1.0  0.83047  0.05016  0.64237  1.0000
  C   C273      1.0  0.92816  0.25222  0.34189  1.0000
  C   C274      1.0  0.93694  0.24010  0.41899  1.0000
  C   C275      1.0  0.93663  0.20872  0.41687  1.0000
  C   C276      1.0  0.92752  0.18896  0.33754  1.0000
  N   N33       1.0  0.94324  0.19736  0.49447  1.0000
  C   C277      1.0  0.95104  0.21482  0.57284  1.0000
  C   C278      1.0  0.95150  0.24604  0.57479  1.0000
  N   N34       1.0  0.94399  0.25707  0.49834  1.0000
  C   C279      1.0  0.95923  0.20290  0.65065  1.0000
  C   C280      1.0  0.96025  0.26518  0.65442  1.0000
  H   H141      1.0  0.95917  0.18052  0.64954  1.0000
  H   H142      1.0  0.96107  0.28792  0.65588  1.0000
  C   C281      1.0  0.75997  0.18687  0.34657  1.0000
  C   C282      1.0  0.77080  0.20669  0.42571  1.0000
  C   C283      1.0  0.80171  0.23823  0.42728  1.0000
  C   C284      1.0  0.82229  0.25057  0.34970  1.0000
  N   N35       1.0  0.81175  0.25527  0.50652  1.0000
  C   C285      1.0  0.79342  0.24415  0.58329  1.0000
  C   C286      1.0  0.76277  0.21282  0.58175  1.0000
  N   N36       1.0  0.75303  0.19527  0.50355  1.0000
  C   C287      1.0  0.80382  0.26340  0.66276  1.0000
  C   C288      1.0  0.74276  0.20090  0.65971  1.0000
  H   H143      1.0  0.82572  0.28620  0.66408  1.0000
  H   H144      1.0  0.72047  0.17846  0.65881  1.0000
  C   C289      1.0  0.64887  0.57913  0.34341  1.0000
  C   C290      1.0  0.63109  0.56168  0.26498  1.0000
  C   C291      1.0  0.59502  0.54406  0.26196  1.0000
  C   C292      1.0  0.57579  0.54314  0.33792  1.0000
  N   N37       1.0  0.57974  0.52954  0.18274  1.0000
  C   C293      1.0  0.59697  0.53070  0.10726  1.0000
  C   C294      1.0  0.63270  0.54771  0.11076  1.0000
  N   N38       1.0  0.64812  0.56252  0.18909  1.0000
  C   C295      1.0  0.58025  0.51608  0.02604  1.0000
  C   C296      1.0  0.65142  0.54964  0.03361  1.0000
  H   H145      1.0  0.55461  0.50464  0.02235  1.0000
  H   H146      1.0  0.67723  0.56216  0.03574  1.0000
  C   C297      1.0  0.93207  0.58177  0.33984  1.0000
  C   C298      1.0  0.93257  0.56382  0.26265  1.0000
  C   C299      1.0  0.95032  0.54551  0.26292  1.0000
  C   C300      1.0  0.96804  0.54476  0.34033  1.0000
  N   N39       1.0  0.95075  0.52975  0.18568  1.0000
  C   C301      1.0  0.93530  0.53060  0.10869  1.0000
  C   C302      1.0  0.91781  0.54889  0.10834  1.0000
  N   N40       1.0  0.91719  0.56460  0.18505  1.0000
  C   C303      1.0  0.93681  0.51432  0.02995  1.0000
  C   C304      1.0  0.90203  0.55088  0.02917  1.0000
  H   H147      1.0  0.94952  0.50121  0.02966  1.0000
  H   H148      1.0  0.88969  0.56434  0.02831  1.0000
  C   C305      1.0  0.92936  0.86225  0.34368  1.0000
  C   C306      1.0  0.94640  0.87947  0.26425  1.0000
  C   C307      1.0  0.96434  0.91552  0.25972  1.0000
  C   C308      1.0  0.96599  0.93526  0.33517  1.0000
  N   N41       1.0  0.97856  0.93026  0.17976  1.0000
  C   C309      1.0  0.97676  0.91248  0.10482  1.0000
  C   C310      1.0  0.95944  0.87677  0.10985  1.0000
  N   N42       1.0  0.94496  0.86190  0.18897  1.0000
  C   C311      1.0  0.99108  0.92861  0.02277  1.0000
  C   C312      1.0  0.95690  0.85751  0.03338  1.0000
  H   H149      1.0  0.00272  0.95424  0.01790  1.0000
  H   H150      1.0  0.94413  0.83173  0.03661  1.0000
  C   C313      1.0  0.77861  0.58836  0.25351  1.0000
  C   C314      1.0  0.80971  0.58900  0.25223  1.0000
  H   H151      1.0  0.82458  0.59866  0.19630  1.0000
  H   H152      1.0  0.77248  0.59771  0.19858  1.0000
  C   C315      1.0  0.75730  0.54015  0.05649  1.0000
  C   C316      1.0  0.78841  0.54076  0.05523  1.0000
  H   H153      1.0  0.74297  0.53311  0.11363  1.0000
  H   H154      1.0  0.79663  0.53420  0.11148  1.0000
  C   C317      1.0  0.92124  0.70257  0.25934  1.0000
  C   C318      1.0  0.92147  0.73343  0.26148  1.0000
  H   H155      1.0  0.91241  0.73986  0.20647  1.0000
  H   H156      1.0  0.91200  0.68799  0.20281  1.0000
  C   C319      1.0  0.96866  0.72250  0.06287  1.0000
  C   C320      1.0  0.96923  0.75357  0.06470  1.0000
  H   H157      1.0  0.97535  0.71424  0.11883  1.0000
  H   H158      1.0  0.97638  0.76784  0.12192  1.0000
  C   C321      1.0  0.80997  0.73169  0.26941  1.0000
  C   C322      1.0  0.77960  0.70056  0.26798  1.0000
  H   H159      1.0  0.77421  0.68599  0.21141  1.0000
  H   H160      1.0  0.82523  0.73815  0.21393  1.0000
  C   C323      1.0  0.78325  0.75183  0.07310  1.0000
  C   C324      1.0  0.75284  0.72067  0.07161  1.0000
  H   H161      1.0  0.79031  0.76622  0.13009  1.0000
  H   H162      1.0  0.73790  0.71247  0.12759  1.0000
  C   C325      1.0  0.53946  0.52533  0.33774  1.0000
  C   C326      1.0  0.52151  0.54313  0.34325  1.0000
  C   C327      1.0  0.98574  0.52621  0.34199  1.0000
  C   C328      1.0  0.96783  0.99043  0.33864  1.0000
  C   C329      1.0  0.98472  0.97157  0.33459  1.0000
  C   C330      1.0  0.52056  0.98955  0.33258  1.0000
  H   H163      1.0  0.94196  0.97787  0.33871  1.0000
  H   H164      1.0  0.53315  0.97630  0.33042  1.0000
  H   H165      1.0  0.53475  0.56898  0.34504  1.0000
  C   C331      1.0  0.73908  0.59682  0.34305  1.0000
  C   C332      1.0  0.75640  0.63234  0.34962  1.0000
  C   C333      1.0  0.73938  0.65094  0.35124  1.0000
  C   C334      1.0  0.70362  0.63294  0.35193  1.0000
  C   C335      1.0  0.68513  0.59706  0.34772  1.0000
  C   C336      1.0  0.70335  0.57940  0.34217  1.0000
  H   H166      1.0  0.69100  0.64616  0.35179  1.0000
  H   H167      1.0  0.69053  0.55364  0.33674  1.0000
  H   H168      1.0  0.78235  0.64519  0.34971  1.0000
  C   C337      1.0  0.91254  0.65306  0.34264  1.0000
  C   C338      1.0  0.87693  0.63412  0.34170  1.0000
  C   C339      1.0  0.85901  0.59854  0.33746  1.0000
  C   C340      1.0  0.87767  0.58147  0.33787  1.0000
  C   C341      1.0  0.91356  0.59952  0.34211  1.0000
  C   C342      1.0  0.93064  0.63540  0.34450  1.0000
  H   H169      1.0  0.86494  0.55566  0.33454  1.0000
  H   H170      1.0  0.95649  0.64884  0.34424  1.0000
  H   H171      1.0  0.86359  0.64672  0.34137  1.0000
  C   C343      1.0  0.85811  0.77158  0.35735  1.0000
  C   C344      1.0  0.87703  0.75489  0.35905  1.0000
  C   C345      1.0  0.91255  0.77243  0.35179  1.0000
  C   C346      1.0  0.92964  0.80811  0.34736  1.0000
  C   C347      1.0  0.91167  0.82606  0.35032  1.0000
  C   C348      1.0  0.87578  0.80731  0.35434  1.0000
  H   H172      1.0  0.95539  0.82107  0.34112  1.0000
  H   H173      1.0  0.86232  0.81967  0.35152  1.0000
  H   H174      1.0  0.86440  0.72896  0.36040  1.0000
  C   C349      1.0  0.59383  0.56150  0.41489  1.0000
  C   C350      1.0  0.62949  0.57914  0.41752  1.0000
  H   H175      1.0  0.64132  0.59170  0.47516  1.0000
  H   H176      1.0  0.58097  0.56185  0.47082  1.0000
  C   C351      1.0  0.59900  0.51786  0.61577  1.0000
  C   C352      1.0  0.63452  0.53456  0.61958  1.0000
  H   H177      1.0  0.58680  0.50721  0.55686  1.0000
  H   H178      1.0  0.64807  0.53603  0.56342  1.0000
  C   C353      1.0  0.96841  0.56374  0.41583  1.0000
  C   C354      1.0  0.95078  0.58179  0.41563  1.0000
  H   H179      1.0  0.95123  0.59460  0.47249  1.0000
  H   H180      1.0  0.98114  0.56407  0.47274  1.0000
  C   C355      1.0  0.92091  0.51631  0.61767  1.0000
  C   C356      1.0  0.90358  0.53456  0.61726  1.0000
  H   H181      1.0  0.92205  0.50458  0.56038  1.0000
  H   H182      1.0  0.89218  0.53604  0.55970  1.0000
  C   C357      1.0  0.94787  0.91779  0.41303  1.0000
  C   C358      1.0  0.92992  0.88216  0.41712  1.0000
  H   H183      1.0  0.91768  0.87076  0.47549  1.0000
  H   H184      1.0  0.94810  0.93104  0.46871  1.0000
  C   C359      1.0  0.98880  0.90931  0.61328  1.0000
  C   C360      1.0  0.97177  0.87383  0.61859  1.0000
  H   H185      1.0  0.99933  0.92109  0.55385  1.0000
  H   H186      1.0  0.96992  0.85988  0.56297  1.0000
  C   C361      1.0  0.82306  0.58254  0.33068  1.0000
  C   C362      1.0  0.80287  0.57295  0.40922  1.0000
  C   C363      1.0  0.77137  0.57240  0.41056  1.0000
  C   C364      1.0  0.75945  0.58139  0.33342  1.0000
  N   N43       1.0  0.75415  0.56518  0.48959  1.0000
  C   C365      1.0  0.76501  0.55766  0.56633  1.0000
  C   C366      1.0  0.79630  0.55824  0.56502  1.0000
  N   N44       1.0  0.81403  0.56626  0.48708  1.0000
  C   C367      1.0  0.74572  0.54892  0.64573  1.0000
  C   C368      1.0  0.80809  0.55010  0.64315  1.0000
  H   H187      1.0  0.72298  0.54813  0.64683  1.0000
  H   H188      1.0  0.83047  0.55016  0.64237  1.0000
  C   C369      1.0  0.92816  0.75222  0.34187  1.0000
  C   C370      1.0  0.93694  0.74010  0.41896  1.0000
  C   C371      1.0  0.93663  0.70872  0.41686  1.0000
  C   C372      1.0  0.92752  0.68895  0.33753  1.0000
  N   N45       1.0  0.94324  0.69737  0.49446  1.0000
  C   C373      1.0  0.95104  0.71482  0.57282  1.0000
  C   C374      1.0  0.95150  0.74604  0.57477  1.0000
  N   N46       1.0  0.94400  0.75707  0.49832  1.0000
  C   C375      1.0  0.95923  0.70291  0.65064  1.0000
  C   C376      1.0  0.96025  0.76519  0.65441  1.0000
  H   H189      1.0  0.95917  0.68052  0.64952  1.0000
  H   H190      1.0  0.96107  0.78792  0.65586  1.0000
  C   C377      1.0  0.75997  0.68687  0.34656  1.0000
  C   C378      1.0  0.77080  0.70669  0.42570  1.0000
  C   C379      1.0  0.80171  0.73823  0.42727  1.0000
  C   C380      1.0  0.82229  0.75057  0.34969  1.0000
  N   N47       1.0  0.81175  0.75527  0.50650  1.0000
  C   C381      1.0  0.79342  0.74416  0.58328  1.0000
  C   C382      1.0  0.76277  0.71282  0.58174  1.0000
  N   N48       1.0  0.75303  0.69527  0.50354  1.0000
  C   C383      1.0  0.80383  0.76341  0.66274  1.0000
  C   C384      1.0  0.74276  0.70090  0.65970  1.0000
  H   H191      1.0  0.82572  0.78621  0.66405  1.0000
  H   H192      1.0  0.72047  0.67846  0.65880  1.0000
