data_image0
_chemical_formula_structural       C2H2CH3C2H2OCH2C2H2OCH2C2H2OCHC2H2OCHC2H2OCHC4NC2NHOHC4NC2NHOHC4NC2NHOCHC4NC2NHOCH2C4NC2NHOCH2C4NC2NHOCH2C4NC2NHOCHC4NC2NHOHC4NC2NHOHC4NC2NHOHC4NC2NHOHC4NC2NHOHNC18H12NC18H12NC18H12NC18H12NC18H12NC18H12NC18H12NC18H12NC18H12NC18H12NC18H12NC18H12C4NC2NHOC4NC2NH2C4NC2NH2C4NC2NH3C4NC2NH3C4NC2NH3C2H2CH2C2H2CH2C2H4C2H3C2H3C2H3C2H4C2H2CH2C2H2CH2C2H2CH2C2H2CH2C2H2CH2
_chemical_formula_sum              "C378 H252 O18 N48"
_cell_length_a       64.4127
_cell_length_b       64.4127
_cell_length_c       14.7773
_cell_angle_alpha    90
_cell_angle_beta     90
_cell_angle_gamma    120

_space_group_name_H-M_alt    "P 1"
_space_group_IT_number       1

loop_
  _space_group_symop_operation_xyz
  'x, y, z'

loop_
  _atom_site_type_symbol
  _atom_site_label
  _atom_site_symmetry_multiplicity
  _atom_site_fract_x
  _atom_site_fract_y
  _atom_site_fract_z
  _atom_site_occupancy
  C   C1        1.0  0.18692  0.37747  0.28693  1.0000
  C   C2        1.0  0.19965  0.40282  0.28609  1.0000
  H   H1        1.0  0.19611  0.41129  0.23485  1.0000
  H   H2        1.0  0.17477  0.36881  0.23631  1.0000
  C   C3        1.0  0.24717  0.42504  0.02842  1.0000
  H   H3        1.0  0.26130  0.43477  0.07801  1.0000
  H   H4        1.0  0.23189  0.41042  0.06343  1.0000
  H   H5        1.0  0.24190  0.43742  0.00033  1.0000
  C   C4        1.0  0.62930  0.81199  0.27428  1.0000
  C   C5        1.0  0.60398  0.79916  0.27379  1.0000
  H   H6        1.0  0.59575  0.79650  0.21243  1.0000
  H   H7        1.0  0.63788  0.81858  0.21390  1.0000
  O   O1        1.0  0.59131  0.77867  0.00825  1.0000
  C   C6        1.0  0.57175  0.78277  0.02697  1.0000
  H   H8        1.0  0.56345  0.77381  0.09033  1.0000
  H   H9        1.0  0.57810  0.80190  0.03460  1.0000
  C   C7        1.0  0.19357  0.80874  0.27820  1.0000
  C   C8        1.0  0.20624  0.79608  0.27822  1.0000
  H   H10       1.0  0.20895  0.79050  0.21698  1.0000
  H   H11       1.0  0.18713  0.81082  0.21760  1.0000
  O   O2        1.0  0.22594  0.80353  0.01324  1.0000
  C   C9        1.0  0.22207  0.77991  0.03105  1.0000
  H   H12       1.0  0.23085  0.78046  0.09475  1.0000
  H   H13       1.0  0.20297  0.76694  0.03754  1.0000
  C   C10       1.0  0.82170  0.62138  0.27718  1.0000
  C   C11       1.0  0.80930  0.59603  0.27690  1.0000
  H   H14       1.0  0.80764  0.58762  0.21639  1.0000
  H   H15       1.0  0.82837  0.63000  0.21691  1.0000
  O   O3        1.0  0.78924  0.58324  0.01201  1.0000
  C   C12       1.0  0.76649  0.56140  0.00700  1.0000
  H   H16       1.0  0.76134  0.55406  0.07489  1.0000
  C   C13       1.0  0.38470  0.19181  0.27709  1.0000
  C   C14       1.0  0.41005  0.20472  0.27678  1.0000
  H   H17       1.0  0.41847  0.21142  0.21623  1.0000
  H   H18       1.0  0.37609  0.18985  0.21680  1.0000
  O   O4        1.0  0.42287  0.19782  0.01202  1.0000
  C   C15       1.0  0.44453  0.19657  0.00728  1.0000
  H   H19       1.0  0.45195  0.19894  0.07509  1.0000
  C   C16       1.0  0.81401  0.18410  0.27673  1.0000
  C   C17       1.0  0.80109  0.19653  0.27665  1.0000
  H   H20       1.0  0.79424  0.19813  0.21627  1.0000
  H   H21       1.0  0.81583  0.17734  0.21647  1.0000
  O   O5        1.0  0.80914  0.21709  0.01151  1.0000
  C   C18       1.0  0.81019  0.23990  0.00648  1.0000
  H   H22       1.0  0.80825  0.24518  0.07448  1.0000
  C   C19       1.0  0.19022  0.20856  0.35291  1.0000
  C   C20       1.0  0.18812  0.19361  0.27879  1.0000
  C   C21       1.0  0.20075  0.18060  0.27737  1.0000
  C   C22       1.0  0.21588  0.18208  0.35014  1.0000
  N   N1        1.0  0.19738  0.16633  0.20440  1.0000
  C   C23       1.0  0.18338  0.16432  0.13273  1.0000
  C   C24       1.0  0.17175  0.17785  0.13238  1.0000
  N   N2        1.0  0.17433  0.19161  0.20577  1.0000
  H   H23       1.0  0.18166  0.15340  0.07974  1.0000
  O   O6        1.0  0.15727  0.17643  0.06230  1.0000
  H   H24       1.0  0.17606  0.21280  0.02551  1.0000
  C   C25       1.0  0.79831  0.97310  0.34424  1.0000
  C   C26       1.0  0.81354  0.98646  0.27129  1.0000
  C   C27       1.0  0.82636  0.01211  0.27136  1.0000
  C   C28       1.0  0.82452  0.02539  0.34468  1.0000
  N   N3        1.0  0.84123  0.02346  0.20027  1.0000
  C   C29       1.0  0.84430  0.01190  0.12952  1.0000
  C   C30       1.0  0.83162  0.98673  0.12891  1.0000
  N   N4        1.0  0.81716  0.97518  0.20030  1.0000
  H   H25       1.0  0.85586  0.02142  0.07848  1.0000
  O   O7        1.0  0.83522  0.97422  0.06222  1.0000
  H   H26       1.0  0.79899  0.94996  0.03370  1.0000
  C   C31       1.0  0.03272  0.81690  0.34577  1.0000
  C   C32       1.0  0.01931  0.81867  0.27279  1.0000
  C   C33       1.0  0.99366  0.80578  0.27295  1.0000
  C   C34       1.0  0.98043  0.79070  0.34643  1.0000
  N   N5        1.0  0.98226  0.80922  0.20181  1.0000
  C   C35       1.0  0.99379  0.82382  0.13092  1.0000
  C   C36       1.0  0.01895  0.83636  0.13023  1.0000
  N   N6        1.0  0.03054  0.83354  0.20168  1.0000
  H   H27       1.0  0.98423  0.82580  0.07986  1.0000
  O   O8        1.0  0.03140  0.85245  0.06342  1.0000
  C   C37       1.0  0.04298  0.84422  0.00184  1.0000
  H   H28       1.0  0.05611  0.84097  0.03633  1.0000
  C   C38       1.0  0.82623  0.79235  0.34236  1.0000
  C   C39       1.0  0.81753  0.79706  0.26092  1.0000
  C   C40       1.0  0.80437  0.80956  0.26046  1.0000
  C   C41       1.0  0.79960  0.81832  0.34180  1.0000
  N   N7        1.0  0.79617  0.81238  0.17900  1.0000
  C   C42       1.0  0.80005  0.80454  0.09913  1.0000
  C   C43       1.0  0.81296  0.79230  0.09920  1.0000
  N   N8        1.0  0.82108  0.78925  0.18004  1.0000
  H   H29       1.0  0.79369  0.80761  0.04033  1.0000
  O   O9        1.0  0.81830  0.78530  0.01921  1.0000
  C   C44       1.0  0.81425  0.76122  0.01862  1.0000
  H   H30       1.0  0.79550  0.74822  0.03296  1.0000
  H   H31       1.0  0.82579  0.75903  0.06723  1.0000
  C   C45       1.0  0.21354  0.02568  0.34317  1.0000
  C   C46       1.0  0.20876  0.01226  0.26175  1.0000
  C   C47       1.0  0.19625  0.98660  0.26138  1.0000
  C   C48       1.0  0.18754  0.97309  0.34279  1.0000
  N   N9        1.0  0.19337  0.97555  0.17993  1.0000
  C   C49       1.0  0.20116  0.98725  0.10000  1.0000
  C   C50       1.0  0.21339  0.01239  0.09998  1.0000
  N   N10       1.0  0.21652  0.02360  0.18080  1.0000
  H   H32       1.0  0.19805  0.97780  0.04121  1.0000
  O   O10       1.0  0.22037  0.02474  0.02000  1.0000
  C   C51       1.0  0.24458  0.04451  0.01896  1.0000
  H   H33       1.0  0.25740  0.03848  0.03248  1.0000
  H   H34       1.0  0.24710  0.05829  0.06791  1.0000
  C   C52       1.0  0.98042  0.17999  0.33809  1.0000
  C   C53       1.0  0.99371  0.19037  0.25755  1.0000
  C   C54       1.0  0.01938  0.20404  0.25715  1.0000
  C   C55       1.0  0.03308  0.20758  0.33736  1.0000
  N   N11       1.0  0.03018  0.21392  0.17681  1.0000
  C   C56       1.0  0.01835  0.21119  0.09795  1.0000
  C   C57       1.0  0.99322  0.19769  0.09787  1.0000
  N   N12       1.0  0.98220  0.18798  0.17774  1.0000
  H   H35       1.0  0.02769  0.21881  0.03993  1.0000
  O   O11       1.0  0.98094  0.19367  0.01808  1.0000
  C   C58       1.0  0.95935  0.19503  0.02297  1.0000
  H   H36       1.0  0.96299  0.21244  0.04862  1.0000
  H   H37       1.0  0.94590  0.18078  0.06553  1.0000
  C   C59       1.0  0.24140  0.63799  0.34613  1.0000
  C   C60       1.0  0.23709  0.62560  0.26192  1.0000
  C   C61       1.0  0.23629  0.60304  0.25500  1.0000
  C   C62       1.0  0.24061  0.59225  0.33111  1.0000
  N   N13       1.0  0.23103  0.59196  0.17283  1.0000
  C   C63       1.0  0.22723  0.60128  0.09673  1.0000
  C   C64       1.0  0.22925  0.62396  0.10148  1.0000
  N   N14       1.0  0.23376  0.63473  0.18376  1.0000
  H   H38       1.0  0.22320  0.59198  0.03727  1.0000
  O   O12       1.0  0.22425  0.63342  0.02744  1.0000
  C   C65       1.0  0.24343  0.65659  0.00083  1.0000
  H   H39       1.0  0.24753  0.66997  0.05364  1.0000
  C   C66       1.0  0.36583  0.59471  0.33733  1.0000
  C   C67       1.0  0.37841  0.60246  0.25340  1.0000
  C   C68       1.0  0.40091  0.62431  0.24608  1.0000
  C   C69       1.0  0.41148  0.63977  0.32151  1.0000
  N   N15       1.0  0.41217  0.62981  0.16430  1.0000
  C   C70       1.0  0.40309  0.61627  0.08895  1.0000
  C   C71       1.0  0.38050  0.59550  0.09412  1.0000
  N   N16       1.0  0.36950  0.58953  0.17604  1.0000
  H   H40       1.0  0.41249  0.62134  0.02967  1.0000
  O   O13       1.0  0.37122  0.58075  0.02071  1.0000
  H   H41       1.0  0.33467  0.56836  0.04259  1.0000
  C   C72       1.0  0.40918  0.76040  0.33860  1.0000
  C   C73       1.0  0.40091  0.76498  0.25530  1.0000
  C   C74       1.0  0.37897  0.76551  0.24959  1.0000
  C   C75       1.0  0.36382  0.76059  0.32597  1.0000
  N   N17       1.0  0.37307  0.77118  0.16842  1.0000
  C   C76       1.0  0.38626  0.77564  0.09211  1.0000
  C   C77       1.0  0.40710  0.77392  0.09553  1.0000
  N   N18       1.0  0.41343  0.76899  0.17688  1.0000
  H   H42       1.0  0.38090  0.77993  0.03343  1.0000
  O   O14       1.0  0.42154  0.77949  0.02113  1.0000
  H   H43       1.0  0.43595  0.75707  0.04487  1.0000
  C   C78       1.0  0.77000  0.35827  0.34127  1.0000
  C   C79       1.0  0.77471  0.37089  0.25744  1.0000
  C   C80       1.0  0.77551  0.39347  0.25068  1.0000
  C   C81       1.0  0.77091  0.40411  0.32659  1.0000
  N   N19       1.0  0.78114  0.40476  0.16894  1.0000
  C   C82       1.0  0.78534  0.39564  0.09312  1.0000
  C   C83       1.0  0.78339  0.37299  0.09772  1.0000
  N   N20       1.0  0.77848  0.36197  0.17959  1.0000
  H   H44       1.0  0.78962  0.40509  0.03394  1.0000
  O   O15       1.0  0.78872  0.36373  0.02390  1.0000
  H   H45       1.0  0.76499  0.32713  0.04703  1.0000
  C   C84       1.0  0.64782  0.40308  0.34072  1.0000
  C   C85       1.0  0.63522  0.39513  0.25685  1.0000
  C   C86       1.0  0.61265  0.37335  0.25010  1.0000
  C   C87       1.0  0.60200  0.35814  0.32608  1.0000
  N   N21       1.0  0.60138  0.36766  0.16832  1.0000
  C   C88       1.0  0.61051  0.38094  0.09245  1.0000
  C   C89       1.0  0.63316  0.40165  0.09705  1.0000
  N   N22       1.0  0.64416  0.40780  0.17896  1.0000
  H   H46       1.0  0.60108  0.37576  0.03325  1.0000
  O   O16       1.0  0.64243  0.41622  0.02318  1.0000
  H   H47       1.0  0.67903  0.42917  0.04667  1.0000
  C   C90       1.0  0.60291  0.23595  0.34114  1.0000
  C   C91       1.0  0.61084  0.23126  0.25733  1.0000
  C   C92       1.0  0.63262  0.23045  0.25063  1.0000
  C   C93       1.0  0.64785  0.23507  0.32659  1.0000
  N   N23       1.0  0.63830  0.22483  0.16892  1.0000
  C   C94       1.0  0.62499  0.22062  0.09307  1.0000
  C   C95       1.0  0.60429  0.22258  0.09760  1.0000
  N   N24       1.0  0.59816  0.22748  0.17944  1.0000
  H   H48       1.0  0.63017  0.21635  0.03391  1.0000
  O   O17       1.0  0.58972  0.21724  0.02369  1.0000
  H   H49       1.0  0.57676  0.24089  0.04685  1.0000
  N   N25       1.0  0.13734  0.26001  0.35819  1.0000
  C   C96       1.0  0.11150  0.24788  0.35128  1.0000
  C   C97       1.0  0.14944  0.28585  0.35628  1.0000
  C   C98       1.0  0.15068  0.24713  0.35942  1.0000
  C   C99       1.0  0.13907  0.22167  0.35818  1.0000
  C   C100      1.0  0.15189  0.20916  0.35571  1.0000
  C   C101      1.0  0.17723  0.22140  0.35701  1.0000
  C   C102      1.0  0.18909  0.24670  0.36231  1.0000
  C   C103      1.0  0.17615  0.25913  0.36285  1.0000
  C   C104      1.0  0.09705  0.24819  0.42270  1.0000
  C   C105      1.0  0.07174  0.23559  0.41691  1.0000
  C   C106      1.0  0.05927  0.22123  0.34083  1.0000
  C   C107      1.0  0.07403  0.22077  0.27016  1.0000
  C   C108      1.0  0.09936  0.23421  0.27408  1.0000
  C   C109      1.0  0.15261  0.29920  0.43612  1.0000
  C   C110      1.0  0.16529  0.32454  0.43559  1.0000
  C   C111      1.0  0.17617  0.33793  0.35592  1.0000
  C   C112      1.0  0.17284  0.32435  0.27598  1.0000
  C   C113      1.0  0.15981  0.29896  0.27609  1.0000
  H   H50       1.0  0.06242  0.23709  0.47011  1.0000
  H   H51       1.0  0.10491  0.25759  0.48036  1.0000
  H   H52       1.0  0.10907  0.23306  0.22150  1.0000
  H   H53       1.0  0.06650  0.20997  0.21515  1.0000
  H   H54       1.0  0.12081  0.21165  0.35854  1.0000
  H   H55       1.0  0.14245  0.19081  0.35393  1.0000
  H   H56       1.0  0.14582  0.29046  0.49596  1.0000
  H   H57       1.0  0.16643  0.33318  0.49501  1.0000
  H   H58       1.0  0.18049  0.33291  0.21655  1.0000
  H   H59       1.0  0.15826  0.28994  0.21725  1.0000
  H   H60       1.0  0.18582  0.27742  0.36545  1.0000
  H   H61       1.0  0.20742  0.25639  0.36344  1.0000
  N   N26       1.0  0.74676  0.86950  0.34832  1.0000
  C   C114      1.0  0.76012  0.85705  0.34810  1.0000
  C   C115      1.0  0.72097  0.85647  0.34861  1.0000
  C   C116      1.0  0.75927  0.89526  0.34782  1.0000
  C   C117      1.0  0.77314  0.90866  0.42270  1.0000
  C   C118      1.0  0.78561  0.93400  0.42170  1.0000
  C   C119      1.0  0.78498  0.94713  0.34573  1.0000
  C   C120      1.0  0.77077  0.93350  0.27130  1.0000
  C   C121      1.0  0.75822  0.90815  0.27226  1.0000
  C   C122      1.0  0.75669  0.83994  0.41507  1.0000
  C   C123      1.0  0.76942  0.82731  0.41266  1.0000
  C   C124      1.0  0.78662  0.83144  0.34441  1.0000
  C   C125      1.0  0.79045  0.84926  0.27937  1.0000
  C   C126      1.0  0.77725  0.86139  0.28007  1.0000
  C   C127      1.0  0.70792  0.85985  0.41830  1.0000
  C   C128      1.0  0.68259  0.84715  0.41918  1.0000
  C   C129      1.0  0.66891  0.82976  0.35241  1.0000
  C   C130      1.0  0.68224  0.82659  0.28251  1.0000
  C   C131      1.0  0.70759  0.83974  0.28017  1.0000
  H   H62       1.0  0.76561  0.81457  0.46118  1.0000
  H   H63       1.0  0.74439  0.83621  0.46531  1.0000
  H   H64       1.0  0.78050  0.87384  0.23093  1.0000
  H   H65       1.0  0.80326  0.85390  0.23052  1.0000
  H   H66       1.0  0.77430  0.89992  0.47855  1.0000
  H   H67       1.0  0.79574  0.94290  0.47677  1.0000
  H   H68       1.0  0.71691  0.87200  0.46854  1.0000
  H   H69       1.0  0.67418  0.85108  0.46938  1.0000
  H   H70       1.0  0.67352  0.81421  0.23265  1.0000
  H   H71       1.0  0.71637  0.83673  0.22870  1.0000
  H   H72       1.0  0.74828  0.89903  0.21700  1.0000
  H   H73       1.0  0.76924  0.94200  0.21537  1.0000
  N   N27       1.0  0.13631  0.86904  0.34987  1.0000
  C   C132      1.0  0.14878  0.89485  0.34948  1.0000
  C   C133      1.0  0.14929  0.85623  0.35075  1.0000
  C   C134      1.0  0.11055  0.85582  0.34927  1.0000
  C   C135      1.0  0.09714  0.85635  0.42401  1.0000
  C   C136      1.0  0.07180  0.84346  0.42300  1.0000
  C   C137      1.0  0.05868  0.82961  0.34718  1.0000
  C   C138      1.0  0.07232  0.82899  0.27286  1.0000
  C   C139      1.0  0.09767  0.84180  0.27382  1.0000
  C   C140      1.0  0.16590  0.90856  0.41640  1.0000
  C   C141      1.0  0.17854  0.93392  0.41384  1.0000
  C   C142      1.0  0.17441  0.94697  0.34552  1.0000
  C   C143      1.0  0.15658  0.93296  0.28055  1.0000
  C   C144      1.0  0.14445  0.90763  0.28135  1.0000
  C   C145      1.0  0.14577  0.83980  0.42061  1.0000
  C   C146      1.0  0.15838  0.82708  0.42199  1.0000
  C   C147      1.0  0.17584  0.83072  0.35561  1.0000
  C   C148      1.0  0.17916  0.84722  0.28556  1.0000
  C   C149      1.0  0.16609  0.85951  0.28269  1.0000
  H   H74       1.0  0.19129  0.94286  0.46233  1.0000
  H   H75       1.0  0.16963  0.90001  0.46671  1.0000
  H   H76       1.0  0.13199  0.89843  0.23226  1.0000
  H   H77       1.0  0.15193  0.94111  0.23165  1.0000
  H   H78       1.0  0.10587  0.86629  0.47980  1.0000
  H   H79       1.0  0.06290  0.84471  0.47800  1.0000
  H   H80       1.0  0.13356  0.83669  0.47057  1.0000
  H   H81       1.0  0.15432  0.81473  0.47225  1.0000
  H   H82       1.0  0.19159  0.85083  0.23596  1.0000
  H   H83       1.0  0.16920  0.87130  0.23110  1.0000
  H   H84       1.0  0.10680  0.84093  0.21867  1.0000
  H   H85       1.0  0.06383  0.81889  0.21705  1.0000
  N   N28       1.0  0.87687  0.73897  0.35081  1.0000
  C   C150      1.0  0.90264  0.75160  0.35062  1.0000
  C   C151      1.0  0.86412  0.71314  0.35148  1.0000
  C   C152      1.0  0.86438  0.75231  0.34946  1.0000
  C   C153      1.0  0.86959  0.77017  0.28345  1.0000
  C   C154      1.0  0.85771  0.78362  0.28258  1.0000
  C   C155      1.0  0.83923  0.77928  0.34515  1.0000
  C   C156      1.0  0.83397  0.76114  0.41052  1.0000
  C   C157      1.0  0.84645  0.74826  0.41363  1.0000
  C   C158      1.0  0.91602  0.76578  0.42499  1.0000
  C   C159      1.0  0.94138  0.77833  0.42406  1.0000
  C   C160      1.0  0.95448  0.77739  0.34848  1.0000
  C   C161      1.0  0.94087  0.76287  0.27464  1.0000
  C   C162      1.0  0.91554  0.75030  0.27559  1.0000
  C   C163      1.0  0.86812  0.70036  0.42058  1.0000
  C   C164      1.0  0.85604  0.67504  0.42134  1.0000
  C   C165      1.0  0.83865  0.66103  0.35506  1.0000
  C   C166      1.0  0.83480  0.67406  0.28583  1.0000
  C   C167      1.0  0.84735  0.69944  0.28357  1.0000
  H   H86       1.0  0.95029  0.78869  0.47884  1.0000
  H   H87       1.0  0.90726  0.76712  0.48042  1.0000
  H   H88       1.0  0.90643  0.74013  0.22073  1.0000
  H   H89       1.0  0.94937  0.76114  0.21913  1.0000
  H   H90       1.0  0.88259  0.77387  0.23622  1.0000
  H   H91       1.0  0.86293  0.79692  0.23537  1.0000
  H   H92       1.0  0.88034  0.70956  0.47038  1.0000
  H   H93       1.0  0.86044  0.66688  0.47105  1.0000
  H   H94       1.0  0.82238  0.66509  0.23637  1.0000
  H   H95       1.0  0.84390  0.70800  0.23247  1.0000
  H   H96       1.0  0.84192  0.73534  0.46199  1.0000
  H   H97       1.0  0.82040  0.75670  0.45577  1.0000
  N   N29       1.0  0.26710  0.12971  0.35110  1.0000
  C   C168      1.0  0.25451  0.14289  0.35147  1.0000
  C   C169      1.0  0.29293  0.14275  0.35163  1.0000
  C   C170      1.0  0.25371  0.10388  0.34993  1.0000
  C   C171      1.0  0.23578  0.09123  0.28414  1.0000
  C   C172      1.0  0.22230  0.06590  0.28338  1.0000
  C   C173      1.0  0.22666  0.05176  0.34587  1.0000
  C   C174      1.0  0.24486  0.06463  0.41100  1.0000
  C   C175      1.0  0.25778  0.08999  0.41401  1.0000
  C   C176      1.0  0.24053  0.14219  0.42639  1.0000
  C   C177      1.0  0.22811  0.15513  0.42622  1.0000
  C   C178      1.0  0.22896  0.16919  0.35089  1.0000
  C   C179      1.0  0.24325  0.16998  0.27643  1.0000
  C   C180      1.0  0.25571  0.15710  0.27661  1.0000
  C   C181      1.0  0.30576  0.15954  0.42065  1.0000
  C   C182      1.0  0.33109  0.17275  0.42129  1.0000
  C   C183      1.0  0.34505  0.16928  0.35506  1.0000
  C   C184      1.0  0.33197  0.15238  0.28593  1.0000
  C   C185      1.0  0.30658  0.13961  0.28374  1.0000
  H   H98       1.0  0.21793  0.15377  0.48149  1.0000
  H   H99       1.0  0.23929  0.13211  0.48175  1.0000
  H   H100      1.0  0.26574  0.15811  0.22140  1.0000
  H   H101      1.0  0.24496  0.18027  0.22112  1.0000
  H   H102      1.0  0.23206  0.10054  0.23698  1.0000
  H   H103      1.0  0.20896  0.05783  0.23633  1.0000
  H   H104      1.0  0.29660  0.16261  0.47043  1.0000
  H   H105      1.0  0.33928  0.18532  0.47093  1.0000
  H   H106      1.0  0.34090  0.14886  0.23652  1.0000
  H   H107      1.0  0.29800  0.12758  0.23273  1.0000
  H   H108      1.0  0.27075  0.09838  0.46222  1.0000
  H   H109      1.0  0.24932  0.05550  0.45620  1.0000
  N   N30       1.0  0.87647  0.12894  0.34888  1.0000
  C   C186      1.0  0.86339  0.10318  0.34846  1.0000
  C   C187      1.0  0.86344  0.14172  0.35011  1.0000
  C   C188      1.0  0.90228  0.14145  0.34708  1.0000
  C   C189      1.0  0.91485  0.13725  0.27764  1.0000
  C   C190      1.0  0.94019  0.14930  0.27582  1.0000
  C   C191      1.0  0.95435  0.16678  0.34154  1.0000
  C   C192      1.0  0.94155  0.17087  0.41087  1.0000
  C   C193      1.0  0.91619  0.15837  0.41424  1.0000
  C   C194      1.0  0.86418  0.08979  0.42286  1.0000
  C   C195      1.0  0.85130  0.06444  0.42207  1.0000
  C   C196      1.0  0.83722  0.05134  0.34659  1.0000
  C   C197      1.0  0.83633  0.06495  0.27270  1.0000
  C   C198      1.0  0.84914  0.09028  0.27353  1.0000
  C   C199      1.0  0.84674  0.13776  0.41950  1.0000
  C   C200      1.0  0.83349  0.14984  0.42052  1.0000
  C   C201      1.0  0.83680  0.16720  0.35421  1.0000
  C   C202      1.0  0.85360  0.17102  0.28471  1.0000
  C   C203      1.0  0.86643  0.15846  0.28220  1.0000
  H   H110      1.0  0.85275  0.05554  0.47687  1.0000
  H   H111      1.0  0.87429  0.09856  0.47827  1.0000
  H   H112      1.0  0.84806  0.09939  0.21871  1.0000
  H   H113      1.0  0.82606  0.05644  0.21726  1.0000
  H   H114      1.0  0.90549  0.12497  0.22820  1.0000
  H   H115      1.0  0.94825  0.14493  0.22559  1.0000
  H   H116      1.0  0.84376  0.12554  0.46925  1.0000
  H   H117      1.0  0.82100  0.14547  0.47047  1.0000
  H   H118      1.0  0.85700  0.18342  0.23520  1.0000
  H   H119      1.0  0.87836  0.16189  0.23085  1.0000
  H   H120      1.0  0.90782  0.16206  0.46533  1.0000
  H   H121      1.0  0.95071  0.18355  0.45922  1.0000
  N   N31       1.0  0.26708  0.52034  0.34390  1.0000
  C   C204      1.0  0.29255  0.53510  0.35706  1.0000
  C   C205      1.0  0.25466  0.49464  0.34703  1.0000
  C   C206      1.0  0.25459  0.53320  0.32761  1.0000
  C   C207      1.0  0.26161  0.54954  0.25464  1.0000
  C   C208      1.0  0.25638  0.56834  0.25459  1.0000
  C   C209      1.0  0.24300  0.57109  0.32518  1.0000
  C   C210      1.0  0.23438  0.55340  0.39423  1.0000
  C   C211      1.0  0.24021  0.53499  0.39594  1.0000
  C   C212      1.0  0.30914  0.53404  0.29749  1.0000
  C   C213      1.0  0.33343  0.55245  0.29566  1.0000
  C   C214      1.0  0.34205  0.57369  0.34822  1.0000
  C   C215      1.0  0.32533  0.57382  0.41078  1.0000
  C   C216      1.0  0.30159  0.55466  0.41788  1.0000
  C   C217      1.0  0.25167  0.48089  0.26848  1.0000
  C   C218      1.0  0.23917  0.45554  0.27119  1.0000
  C   C219      1.0  0.22883  0.44262  0.35229  1.0000
  C   C220      1.0  0.23150  0.45666  0.43025  1.0000
  C   C221      1.0  0.24426  0.48201  0.42795  1.0000
  H   H122      1.0  0.34456  0.55036  0.25223  1.0000
  H   H123      1.0  0.30338  0.52031  0.25199  1.0000
  H   H124      1.0  0.29010  0.55664  0.46002  1.0000
  H   H125      1.0  0.32973  0.58865  0.44915  1.0000
  H   H126      1.0  0.27315  0.54963  0.20685  1.0000
  H   H127      1.0  0.26430  0.58121  0.20578  1.0000
  H   H128      1.0  0.25874  0.48940  0.20842  1.0000
  H   H129      1.0  0.23797  0.44649  0.21277  1.0000
  H   H130      1.0  0.22380  0.44848  0.49014  1.0000
  H   H131      1.0  0.24582  0.49132  0.48600  1.0000
  H   H132      1.0  0.23578  0.52427  0.45188  1.0000
  H   H133      1.0  0.22483  0.55455  0.44740  1.0000
  N   N32       1.0  0.48521  0.73790  0.33822  1.0000
  C   C222      1.0  0.47019  0.74840  0.35266  1.0000
  C   C223      1.0  0.51119  0.75094  0.34236  1.0000
  C   C224      1.0  0.47177  0.71242  0.32209  1.0000
  C   C225      1.0  0.45635  0.70329  0.24630  1.0000
  C   C226      1.0  0.43714  0.67938  0.24446  1.0000
  C   C227      1.0  0.43301  0.66311  0.31633  1.0000
  C   C228      1.0  0.44974  0.67193  0.38853  1.0000
  C   C229      1.0  0.46819  0.69605  0.39241  1.0000
  C   C230      1.0  0.46984  0.76514  0.29171  1.0000
  C   C231      1.0  0.45121  0.77065  0.29232  1.0000
  C   C232      1.0  0.43060  0.75821  0.34809  1.0000
  C   C233      1.0  0.43173  0.74229  0.41209  1.0000
  C   C234      1.0  0.45132  0.73826  0.41675  1.0000
  C   C235      1.0  0.52550  0.76942  0.28046  1.0000
  C   C236      1.0  0.55085  0.78228  0.28557  1.0000
  C   C237      1.0  0.56380  0.77664  0.34951  1.0000
  C   C238      1.0  0.54928  0.75717  0.40796  1.0000
  C   C239      1.0  0.52397  0.74537  0.40664  1.0000
  H   H134      1.0  0.45265  0.78345  0.24799  1.0000
  H   H135      1.0  0.48253  0.77269  0.24241  1.0000
  H   H136      1.0  0.45024  0.72553  0.46086  1.0000
  H   H137      1.0  0.41747  0.73203  0.45326  1.0000
  H   H138      1.0  0.45722  0.71484  0.19695  1.0000
  H   H139      1.0  0.42500  0.67463  0.19298  1.0000
  H   H140      1.0  0.51760  0.77382  0.23008  1.0000
  H   H141      1.0  0.55983  0.79611  0.24109  1.0000
  H   H142      1.0  0.55694  0.75080  0.45222  1.0000
  H   H143      1.0  0.51498  0.73218  0.45304  1.0000
  H   H144      1.0  0.47734  0.70200  0.45177  1.0000
  H   H145      1.0  0.44763  0.66126  0.44307  1.0000
  N   N33       1.0  0.26589  0.73704  0.34597  1.0000
  C   C240      1.0  0.25497  0.71147  0.36063  1.0000
  C   C241      1.0  0.25324  0.75037  0.34919  1.0000
  C   C242      1.0  0.29132  0.74869  0.32930  1.0000
  C   C243      1.0  0.30016  0.74212  0.25342  1.0000
  C   C244      1.0  0.32398  0.74660  0.25090  1.0000
  C   C245      1.0  0.34045  0.75875  0.32220  1.0000
  C   C246      1.0  0.33190  0.76682  0.39479  1.0000
  C   C247      1.0  0.30786  0.76143  0.39923  1.0000
  C   C248      1.0  0.23782  0.69452  0.30043  1.0000
  C   C249      1.0  0.23176  0.67022  0.30119  1.0000
  C   C250      1.0  0.24406  0.66176  0.35625  1.0000
  C   C251      1.0  0.26038  0.67863  0.41968  1.0000
  C   C252      1.0  0.26496  0.70245  0.42425  1.0000
  C   C253      1.0  0.23512  0.74664  0.28622  1.0000
  C   C254      1.0  0.22258  0.75945  0.29064  1.0000
  C   C255      1.0  0.22826  0.77799  0.35484  1.0000
  C   C256      1.0  0.24746  0.78257  0.41418  1.0000
  C   C257      1.0  0.25892  0.76872  0.41355  1.0000
  H   H146      1.0  0.21878  0.65898  0.25716  1.0000
  H   H147      1.0  0.23031  0.69983  0.25159  1.0000
  H   H148      1.0  0.27794  0.71398  0.46789  1.0000
  H   H149      1.0  0.27044  0.67428  0.46050  1.0000
  H   H150      1.0  0.28846  0.73147  0.20438  1.0000
  H   H151      1.0  0.32853  0.73907  0.19928  1.0000
  H   H152      1.0  0.23075  0.73442  0.23551  1.0000
  H   H153      1.0  0.20894  0.75486  0.24549  1.0000
  H   H154      1.0  0.25389  0.79654  0.45867  1.0000
  H   H155      1.0  0.27191  0.77263  0.46056  1.0000
  H   H156      1.0  0.30208  0.76488  0.45853  1.0000
  H   H157      1.0  0.34274  0.77541  0.44888  1.0000
  N   N34       1.0  0.74674  0.47786  0.34452  1.0000
  C   C258      1.0  0.72117  0.46310  0.35800  1.0000
  C   C259      1.0  0.75974  0.50374  0.34831  1.0000
  C   C260      1.0  0.75875  0.46446  0.32761  1.0000
  C   C261      1.0  0.75189  0.44869  0.25275  1.0000
  C   C262      1.0  0.75658  0.42950  0.25070  1.0000
  C   C263      1.0  0.76914  0.42565  0.32166  1.0000
  C   C264      1.0  0.77763  0.44273  0.39279  1.0000
  C   C265      1.0  0.77225  0.46141  0.39643  1.0000
  C   C266      1.0  0.70433  0.46364  0.29816  1.0000
  C   C267      1.0  0.68007  0.44518  0.29729  1.0000
  C   C268      1.0  0.67159  0.42418  0.35103  1.0000
  C   C269      1.0  0.68842  0.42448  0.41410  1.0000
  C   C270      1.0  0.71217  0.44374  0.41995  1.0000
  C   C271      1.0  0.75789  0.51788  0.27899  1.0000
  C   C272      1.0  0.77070  0.54324  0.28272  1.0000
  C   C273      1.0  0.78688  0.55609  0.35391  1.0000
  C   C274      1.0  0.78926  0.54172  0.42146  1.0000
  C   C275      1.0  0.77571  0.51638  0.41986  1.0000
  H   H158      1.0  0.66885  0.44706  0.25363  1.0000
  H   H159      1.0  0.70976  0.47697  0.25134  1.0000
  H   H160      1.0  0.72368  0.44210  0.46309  1.0000
  H   H161      1.0  0.68410  0.40988  0.45377  1.0000
  H   H162      1.0  0.74093  0.44939  0.20420  1.0000
  H   H163      1.0  0.74883  0.41713  0.20012  1.0000
  H   H164      1.0  0.74718  0.50978  0.22431  1.0000
  H   H165      1.0  0.76780  0.55238  0.23255  1.0000
  H   H166      1.0  0.80125  0.54959  0.47310  1.0000
  H   H167      1.0  0.77775  0.50720  0.47205  1.0000
  H   H168      1.0  0.77628  0.47122  0.45447  1.0000
  H   H169      1.0  0.78661  0.44083  0.44638  1.0000
  N   N35       1.0  0.52823  0.26025  0.34443  1.0000
  C   C276      1.0  0.54299  0.24943  0.35799  1.0000
  C   C277      1.0  0.50235  0.24740  0.34822  1.0000
  C   C278      1.0  0.54167  0.28566  0.32742  1.0000
  C   C279      1.0  0.55741  0.29451  0.25248  1.0000
  C   C280      1.0  0.57662  0.31838  0.25046  1.0000
  C   C281      1.0  0.58045  0.33484  0.32121  1.0000
  C   C282      1.0  0.56336  0.32628  0.39233  1.0000
  C   C283      1.0  0.54469  0.30222  0.39614  1.0000
  C   C284      1.0  0.54239  0.23199  0.29834  1.0000
  C   C285      1.0  0.56082  0.22615  0.29764  1.0000
  C   C286      1.0  0.58183  0.23867  0.35137  1.0000
  C   C287      1.0  0.58155  0.25523  0.41434  1.0000
  C   C288      1.0  0.56231  0.25976  0.42005  1.0000
  C   C289      1.0  0.48819  0.23135  0.27904  1.0000
  C   C290      1.0  0.46283  0.21883  0.28279  1.0000
  C   C291      1.0  0.45000  0.22226  0.35381  1.0000
  C   C292      1.0  0.46439  0.23905  0.42122  1.0000
  C   C293      1.0  0.48972  0.25079  0.41964  1.0000
  H   H170      1.0  0.55892  0.21302  0.25410  1.0000
  H   H171      1.0  0.52906  0.22407  0.25151  1.0000
  H   H172      1.0  0.56397  0.27294  0.46310  1.0000
  H   H173      1.0  0.59615  0.26551  0.45402  1.0000
  H   H174      1.0  0.55669  0.28282  0.20401  1.0000
  H   H175      1.0  0.58896  0.32299  0.19976  1.0000
  H   H176      1.0  0.49627  0.22868  0.22445  1.0000
  H   H177      1.0  0.45368  0.20675  0.23276  1.0000
  H   H178      1.0  0.45653  0.24322  0.47274  1.0000
  H   H179      1.0  0.49890  0.26203  0.47176  1.0000
  H   H180      1.0  0.53489  0.29645  0.45421  1.0000
  H   H181      1.0  0.56526  0.33716  0.44586  1.0000
  N   N36       1.0  0.74576  0.25933  0.34485  1.0000
  C   C294      1.0  0.75655  0.28489  0.35844  1.0000
  C   C295      1.0  0.75862  0.24632  0.34851  1.0000
  C   C296      1.0  0.72036  0.24733  0.32777  1.0000
  C   C297      1.0  0.71148  0.25420  0.25286  1.0000
  C   C298      1.0  0.68759  0.24949  0.25090  1.0000
  C   C299      1.0  0.67116  0.23684  0.32170  1.0000
  C   C300      1.0  0.67974  0.22833  0.39277  1.0000
  C   C301      1.0  0.70382  0.23378  0.39653  1.0000
  C   C302      1.0  0.77401  0.30172  0.29879  1.0000
  C   C303      1.0  0.77984  0.32599  0.29799  1.0000
  C   C304      1.0  0.76730  0.33448  0.35159  1.0000
  C   C305      1.0  0.75073  0.31765  0.41456  1.0000
  C   C306      1.0  0.74622  0.29389  0.42046  1.0000
  C   C307      1.0  0.77447  0.24804  0.27881  1.0000
  C   C308      1.0  0.78698  0.23519  0.28235  1.0000
  C   C309      1.0  0.78377  0.21911  0.35383  1.0000
  C   C310      1.0  0.76716  0.21687  0.42180  1.0000
  C   C311      1.0  0.75541  0.23045  0.42031  1.0000
  H   H182      1.0  0.79295  0.33720  0.25436  1.0000
  H   H183      1.0  0.78191  0.29628  0.25202  1.0000
  H   H184      1.0  0.73302  0.28236  0.46336  1.0000
  H   H185      1.0  0.74044  0.32198  0.45414  1.0000
  H   H186      1.0  0.72315  0.26518  0.20437  1.0000
  H   H187      1.0  0.68295  0.25721  0.20022  1.0000
  H   H188      1.0  0.77699  0.25868  0.22398  1.0000
  H   H189      1.0  0.79888  0.23796  0.23178  1.0000
  H   H190      1.0  0.76313  0.20496  0.47365  1.0000
  H   H191      1.0  0.74429  0.22851  0.47275  1.0000
  H   H192      1.0  0.70961  0.22973  0.45454  1.0000
  H   H193      1.0  0.66888  0.21936  0.44637  1.0000
  C   C312      1.0  0.21621  0.41655  0.35495  1.0000
  C   C313      1.0  0.21962  0.40326  0.42450  1.0000
  C   C314      1.0  0.20686  0.37758  0.42502  1.0000
  C   C315      1.0  0.18992  0.36401  0.35644  1.0000
  N   N37       1.0  0.21202  0.36648  0.49258  1.0000
  C   C316      1.0  0.22793  0.37818  0.55988  1.0000
  C   C317      1.0  0.24001  0.40333  0.56081  1.0000
  N   N38       1.0  0.23567  0.41467  0.49233  1.0000
  H   H194      1.0  0.23088  0.36877  0.60886  1.0000
  O   O18       1.0  0.25647  0.41611  0.62624  1.0000
  C   C318      1.0  0.59005  0.78973  0.35354  1.0000
  C   C319      1.0  0.60356  0.79400  0.43484  1.0000
  C   C320      1.0  0.62925  0.80658  0.43536  1.0000
  C   C321      1.0  0.64282  0.81623  0.35473  1.0000
  N   N39       1.0  0.64036  0.80849  0.51593  1.0000
  C   C322      1.0  0.62875  0.80002  0.59560  1.0000
  C   C323      1.0  0.60366  0.78882  0.59671  1.0000
  N   N40       1.0  0.59247  0.78613  0.51616  1.0000
  H   H195      1.0  0.63822  0.80192  0.65344  1.0000
  H   H196      1.0  0.55806  0.77528  0.64085  1.0000
  C   C324      1.0  0.21543  0.79142  0.35829  1.0000
  C   C325      1.0  0.21111  0.80072  0.43934  1.0000
  C   C326      1.0  0.19870  0.81399  0.43938  1.0000
  C   C327      1.0  0.18925  0.81803  0.35844  1.0000
  N   N41       1.0  0.19672  0.82320  0.51984  1.0000
  C   C328      1.0  0.20498  0.81993  0.59979  1.0000
  C   C329      1.0  0.21604  0.80592  0.60131  1.0000
  N   N42       1.0  0.21876  0.79737  0.52091  1.0000
  H   H197      1.0  0.20303  0.82751  0.65751  1.0000
  H   H198      1.0  0.22990  0.77404  0.64502  1.0000
  C   C330      1.0  0.79995  0.58225  0.35693  1.0000
  C   C331      1.0  0.80379  0.59570  0.43786  1.0000
  C   C332      1.0  0.81626  0.62136  0.43842  1.0000
  C   C333      1.0  0.82568  0.63492  0.35756  1.0000
  N   N43       1.0  0.81834  0.63238  0.51935  1.0000
  C   C334      1.0  0.80975  0.62067  0.59879  1.0000
  C   C335      1.0  0.79740  0.59552  0.59878  1.0000
  N   N44       1.0  0.79512  0.58441  0.51830  1.0000
  H   H199      1.0  0.81222  0.63010  0.65719  1.0000
  H   H200      1.0  0.76763  0.54805  0.63165  1.0000
  H   H201      1.0  0.75256  0.56471  0.64737  1.0000
  C   C336      1.0  0.42384  0.20920  0.35683  1.0000
  C   C337      1.0  0.41039  0.19968  0.43781  1.0000
  C   C338      1.0  0.38472  0.18653  0.43840  1.0000
  C   C339      1.0  0.37116  0.18235  0.35752  1.0000
  N   N45       1.0  0.37370  0.17767  0.51941  1.0000
  C   C340      1.0  0.38542  0.18085  0.59888  1.0000
  C   C341      1.0  0.41057  0.19362  0.59883  1.0000
  N   N46       1.0  0.42168  0.20235  0.51828  1.0000
  H   H202      1.0  0.37599  0.17395  0.65733  1.0000
  H   H203      1.0  0.45794  0.21080  0.63121  1.0000
  H   H204      1.0  0.44096  0.17915  0.64866  1.0000
  C   C342      1.0  0.79682  0.20600  0.35670  1.0000
  C   C343      1.0  0.80655  0.20223  0.43747  1.0000
  C   C344      1.0  0.81969  0.18971  0.43781  1.0000
  C   C345      1.0  0.82368  0.18018  0.35693  1.0000
  N   N47       1.0  0.82875  0.18768  0.51855  1.0000
  C   C346      1.0  0.82579  0.19639  0.59801  1.0000
  C   C347      1.0  0.81305  0.20880  0.59821  1.0000
  N   N48       1.0  0.80411  0.21103  0.51791  1.0000
  H   H205      1.0  0.83285  0.19397  0.65626  1.0000
  H   H206      1.0  0.79562  0.23879  0.63175  1.0000
  H   H207      1.0  0.82739  0.25373  0.64611  1.0000
  C   C348      1.0  0.21783  0.19713  0.42353  1.0000
  C   C349      1.0  0.20556  0.21020  0.42450  1.0000
  H   H208      1.0  0.20762  0.22073  0.47948  1.0000
  H   H209      1.0  0.22870  0.19908  0.47723  1.0000
  C   C350      1.0  0.16951  0.19502  0.66277  1.0000
  H   H210      1.0  0.15682  0.19252  0.60923  1.0000
  H   H211      1.0  0.18447  0.19405  0.63231  1.0000
  C   C351      1.0  0.80973  0.01189  0.41797  1.0000
  C   C352      1.0  0.79700  0.98655  0.41770  1.0000
  H   H212      1.0  0.78622  0.97789  0.47189  1.0000
  H   H213      1.0  0.80765  0.02053  0.47237  1.0000
  C   C353      1.0  0.81554  0.96298  0.66653  1.0000
  H   H214      1.0  0.82005  0.95344  0.61651  1.0000
  H   H215      1.0  0.81265  0.97623  0.63122  1.0000
  C   C354      1.0  0.99397  0.78949  0.41974  1.0000
  C   C355      1.0  0.01931  0.80217  0.41937  1.0000
  H   H216      1.0  0.02801  0.80011  0.47356  1.0000
  H   H217      1.0  0.98538  0.77880  0.47421  1.0000
  H   H218      1.0  0.05244  0.85825  0.61836  1.0000
  H   H219      1.0  0.02994  0.82794  0.63326  1.0000
  C   C356      1.0  0.80832  0.81345  0.42261  1.0000
  C   C357      1.0  0.82106  0.80085  0.42295  1.0000
  H   H220      1.0  0.82714  0.79841  0.48376  1.0000
  H   H221      1.0  0.80588  0.81959  0.48330  1.0000
  H   H222      1.0  0.81855  0.75751  0.61821  1.0000
  C   C358      1.0  0.19247  0.98669  0.42357  1.0000
  C   C359      1.0  0.20510  0.01204  0.42381  1.0000
  H   H223      1.0  0.20758  0.02057  0.48462  1.0000
  H   H224      1.0  0.18637  0.97814  0.48431  1.0000
  H   H225      1.0  0.24825  0.05258  0.61864  1.0000
  C   C360      1.0  0.01951  0.19680  0.41688  1.0000
  C   C361      1.0  0.99418  0.18372  0.41749  1.0000
  H   H226      1.0  0.98576  0.17634  0.47745  1.0000
  H   H227      1.0  0.02806  0.19800  0.47662  1.0000
  H   H228      1.0  0.95199  0.19278  0.62171  1.0000
  C   C362      1.0  0.24428  0.60434  0.41474  1.0000
  C   C363      1.0  0.24433  0.62617  0.42202  1.0000
  H   H229      1.0  0.24692  0.63356  0.48508  1.0000
  H   H230      1.0  0.24785  0.59774  0.47202  1.0000
  H   H231      1.0  0.23769  0.66218  0.60744  1.0000
  H   H232      1.0  0.25959  0.65590  0.65059  1.0000
  C   C364      1.0  0.39910  0.63166  0.40480  1.0000
  C   C365      1.0  0.37743  0.60981  0.41259  1.0000
  H   H233      1.0  0.36999  0.60525  0.47564  1.0000
  H   H234      1.0  0.40541  0.64203  0.46170  1.0000
  C   C366      1.0  0.34849  0.57735  0.65764  1.0000
  H   H235      1.0  0.34309  0.56597  0.59767  1.0000
  H   H236      1.0  0.34973  0.59438  0.63949  1.0000
  C   C367      1.0  0.37232  0.75644  0.40853  1.0000
  C   C368      1.0  0.39429  0.75677  0.41474  1.0000
  H   H237      1.0  0.39915  0.75403  0.47743  1.0000
  H   H238      1.0  0.36219  0.75242  0.46607  1.0000
  C   C369      1.0  0.42616  0.76082  0.65972  1.0000
  H   H239      1.0  0.43724  0.76689  0.59901  1.0000
  H   H240      1.0  0.40953  0.74435  0.64337  1.0000
  C   C370      1.0  0.76674  0.39171  0.40976  1.0000
  C   C371      1.0  0.76670  0.36989  0.41694  1.0000
  H   H241      1.0  0.76387  0.36241  0.47988  1.0000
  H   H242      1.0  0.76293  0.39813  0.46697  1.0000
  C   C372      1.0  0.76949  0.34082  0.66181  1.0000
  H   H243      1.0  0.77540  0.33544  0.60163  1.0000
  H   H244      1.0  0.75352  0.34181  0.64435  1.0000
  C   C373      1.0  0.61437  0.36641  0.40930  1.0000
  C   C374      1.0  0.63618  0.38818  0.41644  1.0000
  H   H245      1.0  0.64365  0.39287  0.47939  1.0000
  H   H246      1.0  0.60794  0.35620  0.46653  1.0000
  C   C375      1.0  0.66538  0.41996  0.66135  1.0000
  H   H247      1.0  0.67078  0.43125  0.60117  1.0000
  H   H248      1.0  0.66445  0.40302  0.64397  1.0000
  C   C376      1.0  0.63960  0.23921  0.40976  1.0000
  C   C377      1.0  0.61782  0.23926  0.41685  1.0000
  H   H249      1.0  0.61315  0.24209  0.47977  1.0000
  H   H250      1.0  0.64982  0.24303  0.46697  1.0000
  C   C378      1.0  0.58600  0.23644  0.66165  1.0000
  H   H251      1.0  0.57473  0.23054  0.60141  1.0000
  H   H252      1.0  0.60294  0.25245  0.64431  1.0000
