data_image0
_chemical_formula_structural       C7H2N2O4C2HC3HNH2NH2C2HC3HNH2NH2C2HC3HNH2NH2C7H2N2O4C7H2N2O4C7H2N2O4C7H2N2O4C2HC3HNH2NH2C2HC3HNH2NH2C7H2N2O4C7H2N2O4C2HC3HNH2NH2C2HC3HNH2NH2C7H2N2O4C7H2N2O4C2HC3HNH2NH2C2HC3HNH2NH2C7H2N2O4C7H2N2O4C2HC3HNH2NH2C2HC3HNH2NH2C2HC3HNH2NH2C7H2N2O4CNCNCNCNCNCNCNCNCNCNCNCNCNCNCNCNCNCNCNCNCNCNCNCNCNCNCNCNCNCNCNCNCNCNCNCNCNCNCNCNCNCNCNCNCNCNCNCNC2HC3HNH2NH2C7H2N2O4C7H2N2O4C7H2N2O4C2HC3HNH2NH2C2HC3HNH2NH2C2HC3HNH2NH2C2HC3HNH2NH2C7H2N2O4C7H2N2O4C2HC3HNH2NH2C2HC3HNH2NH2C7H2N2O4C7H2N2O4C2HC3HNH2NH2C2HC3HNH2NH2C7H2N2O4C7H2N2O4C2HC3HNH2NH2C2HC3HNH2NH2C7H2N2O4C7H2N2O4C7H2N2O4C2HC3HNH2NH2
_chemical_formula_sum              "C336 H192 N144 O96"
_cell_length_a       81.9603
_cell_length_b       42.2569
_cell_length_c       14.8493
_cell_angle_alpha    90
_cell_angle_beta     90
_cell_angle_gamma    90

_space_group_name_H-M_alt    "P 1"
_space_group_IT_number       1

loop_
  _space_group_symop_operation_xyz
  'x, y, z'

loop_
  _atom_site_type_symbol
  _atom_site_label
  _atom_site_symmetry_multiplicity
  _atom_site_fract_x
  _atom_site_fract_y
  _atom_site_fract_z
  _atom_site_occupancy
  C   C1        1.0  0.52508  0.58024  0.33476  1.0000
  C   C2        1.0  0.50943  0.57517  0.29553  1.0000
  C   C3        1.0  0.50217  0.54476  0.29872  1.0000
  C   C4        1.0  0.50995  0.51868  0.33978  1.0000
  C   C5        1.0  0.50155  0.48889  0.34009  1.0000
  C   C6        1.0  0.49931  0.47104  0.26014  1.0000
  C   C7        1.0  0.49085  0.44181  0.26395  1.0000
  H   H1        1.0  0.48959  0.42892  0.20591  1.0000
  H   H2        1.0  0.49088  0.54175  0.27030  1.0000
  N   N1        1.0  0.50587  0.48248  0.17811  1.0000
  N   N2        1.0  0.50123  0.60012  0.25056  1.0000
  O   O1        1.0  0.49486  0.48690  0.12049  1.0000
  O   O2        1.0  0.48772  0.60632  0.28651  1.0000
  O   O3        1.0  0.51624  0.46372  0.14604  1.0000
  O   O4        1.0  0.49901  0.59411  0.16857  1.0000
  C   C8        1.0  0.98445  0.02326  0.30889  1.0000
  C   C9        1.0  0.97723  0.05381  0.31240  1.0000
  H   H3        1.0  0.96600  0.05694  0.28343  1.0000
  C   C10       1.0  0.02594  0.93008  0.34174  1.0000
  C   C11       1.0  0.02383  0.94796  0.26131  1.0000
  C   C12       1.0  0.01526  0.97712  0.26558  1.0000
  H   H4        1.0  0.01374  0.99006  0.20782  1.0000
  N   N3        1.0  0.97592  0.99924  0.26993  1.0000
  H   H5        1.0  0.96509  0.00266  0.24485  1.0000
  H   H6        1.0  0.98010  0.97775  0.26799  1.0000
  N   N4        1.0  0.02951  0.93788  0.18007  1.0000
  H   H7        1.0  0.02787  0.95030  0.12560  1.0000
  H   H8        1.0  0.03536  0.91803  0.17348  1.0000
  C   C13       1.0  0.38207  0.30030  0.30794  1.0000
  C   C14       1.0  0.36534  0.29161  0.30938  1.0000
  H   H9        1.0  0.36216  0.27014  0.28260  1.0000
  C   C15       1.0  0.43694  0.35979  0.34279  1.0000
  C   C16       1.0  0.42775  0.35935  0.26141  1.0000
  C   C17       1.0  0.41111  0.35008  0.26460  1.0000
  H   H10       1.0  0.40451  0.34945  0.20599  1.0000
  N   N5        1.0  0.39308  0.27939  0.27360  1.0000
  H   H11       1.0  0.38968  0.25887  0.25043  1.0000
  H   H12       1.0  0.40472  0.28368  0.27363  1.0000
  N   N6        1.0  0.43442  0.36689  0.18023  1.0000
  H   H13       1.0  0.42799  0.36626  0.12514  1.0000
  H   H14       1.0  0.44576  0.37327  0.17437  1.0000
  C   C18       1.0  0.62805  0.70930  0.30696  1.0000
  C   C19       1.0  0.64475  0.71819  0.30878  1.0000
  H   H15       1.0  0.64790  0.73964  0.28178  1.0000
  C   C20       1.0  0.57327  0.64964  0.34141  1.0000
  C   C21       1.0  0.58265  0.64913  0.26069  1.0000
  C   C22       1.0  0.59928  0.65844  0.26414  1.0000
  H   H16       1.0  0.60601  0.65848  0.20594  1.0000
  N   N7        1.0  0.61701  0.72999  0.27188  1.0000
  H   H17       1.0  0.62037  0.75048  0.24833  1.0000
  H   H18       1.0  0.60539  0.72548  0.27118  1.0000
  N   N8        1.0  0.57615  0.64081  0.17971  1.0000
  H   H19       1.0  0.58271  0.64086  0.12502  1.0000
  H   H20       1.0  0.56482  0.63447  0.17355  1.0000
  C   C23       1.0  0.15723  0.81132  0.34170  1.0000
  C   C24       1.0  0.15233  0.84103  0.30544  1.0000
  C   C25       1.0  0.13564  0.84995  0.30672  1.0000
  C   C26       1.0  0.12339  0.83020  0.34316  1.0000
  C   C27       1.0  0.10677  0.84089  0.34132  1.0000
  C   C28       1.0  0.09756  0.84153  0.26047  1.0000
  C   C29       1.0  0.08093  0.85075  0.26309  1.0000
  H   H21       1.0  0.07433  0.85033  0.20449  1.0000
  H   H22       1.0  0.13240  0.87140  0.27993  1.0000
  N   N9        1.0  0.10504  0.83201  0.17888  1.0000
  N   N10       1.0  0.16401  0.86125  0.26500  1.0000
  O   O5        1.0  0.10491  0.85396  0.12181  1.0000
  O   O6        1.0  0.16473  0.88760  0.30404  1.0000
  O   O7        1.0  0.09807  0.80824  0.14559  1.0000
  O   O8        1.0  0.16108  0.86567  0.18287  1.0000
  C   C30       1.0  0.85296  0.19868  0.34174  1.0000
  C   C31       1.0  0.85781  0.16898  0.30518  1.0000
  C   C32       1.0  0.87448  0.15988  0.30674  1.0000
  C   C33       1.0  0.88673  0.17943  0.34389  1.0000
  C   C34       1.0  0.90333  0.16860  0.34217  1.0000
  C   C35       1.0  0.91270  0.16888  0.26193  1.0000
  C   C36       1.0  0.92933  0.15966  0.26487  1.0000
  H   H23       1.0  0.93606  0.16082  0.20681  1.0000
  H   H24       1.0  0.87769  0.13846  0.27967  1.0000
  N   N11       1.0  0.90539  0.17930  0.18076  1.0000
  N   N12       1.0  0.84611  0.14896  0.26413  1.0000
  O   O9        1.0  0.90564  0.15796  0.12181  1.0000
  O   O10       1.0  0.84528  0.12254  0.30276  1.0000
  O   O11       1.0  0.91243  0.20341  0.15000  1.0000
  O   O12       1.0  0.84910  0.14465  0.18200  1.0000
  C   C37       1.0  0.49156  0.31680  0.33983  1.0000
  C   C38       1.0  0.48702  0.28710  0.30226  1.0000
  C   C39       1.0  0.49819  0.26154  0.30399  1.0000
  C   C40       1.0  0.51394  0.26450  0.34169  1.0000
  C   C41       1.0  0.52426  0.23724  0.34256  1.0000
  C   C42       1.0  0.53104  0.22458  0.26242  1.0000
  C   C43       1.0  0.54049  0.19657  0.26689  1.0000
  H   H25       1.0  0.54484  0.18702  0.20816  1.0000
  H   H26       1.0  0.49466  0.24028  0.27705  1.0000
  N   N13       1.0  0.52801  0.23990  0.17924  1.0000
  N   N14       1.0  0.47159  0.28324  0.26053  1.0000
  O   O13       1.0  0.52045  0.22214  0.12566  1.0000
  O   O14       1.0  0.46321  0.26223  0.29862  1.0000
  O   O15       1.0  0.54105  0.24868  0.14247  1.0000
  O   O16       1.0  0.47292  0.27655  0.17837  1.0000
  C   C44       1.0  0.51898  0.69428  0.34149  1.0000
  C   C45       1.0  0.52365  0.72415  0.30557  1.0000
  C   C46       1.0  0.51245  0.74969  0.30700  1.0000
  C   C47       1.0  0.49656  0.74649  0.34274  1.0000
  C   C48       1.0  0.48621  0.77370  0.34343  1.0000
  C   C49       1.0  0.47946  0.78631  0.26319  1.0000
  C   C50       1.0  0.46996  0.81428  0.26752  1.0000
  H   H27       1.0  0.46566  0.82385  0.20871  1.0000
  H   H28       1.0  0.51605  0.77106  0.28115  1.0000
  N   N15       1.0  0.48255  0.77098  0.18010  1.0000
  N   N16       1.0  0.53921  0.72818  0.26558  1.0000
  O   O17       1.0  0.49011  0.78875  0.12657  1.0000
  O   O18       1.0  0.54746  0.74902  0.30525  1.0000
  O   O19       1.0  0.46953  0.76212  0.14319  1.0000
  O   O20       1.0  0.53816  0.73522  0.18354  1.0000
  C   C51       1.0  0.99145  0.79411  0.30801  1.0000
  C   C52       1.0  0.00272  0.81954  0.30985  1.0000
  H   H29       1.0  0.99923  0.84065  0.28193  1.0000
  C   C53       1.0  0.96687  0.68079  0.33761  1.0000
  C   C54       1.0  0.97376  0.69322  0.25705  1.0000
  C   C55       1.0  0.98301  0.72149  0.26192  1.0000
  H   H30       1.0  0.98816  0.73035  0.20429  1.0000
  N   N17       1.0  0.97641  0.79910  0.27178  1.0000
  H   H31       1.0  0.97330  0.81966  0.24764  1.0000
  H   H32       1.0  0.96806  0.78280  0.27164  1.0000
  N   N18       1.0  0.97192  0.67885  0.17561  1.0000
  H   H33       1.0  0.97668  0.68777  0.12115  1.0000
  H   H34       1.0  0.96541  0.65979  0.16846  1.0000
  C   C56       1.0  0.01846  0.21674  0.30856  1.0000
  C   C57       1.0  0.00718  0.19134  0.31010  1.0000
  H   H35       1.0  0.01077  0.17008  0.28356  1.0000
  C   C58       1.0  0.04300  0.33009  0.33708  1.0000
  C   C59       1.0  0.03615  0.31765  0.25641  1.0000
  C   C60       1.0  0.02688  0.28940  0.26110  1.0000
  H   H36       1.0  0.02175  0.28056  0.20339  1.0000
  N   N19       1.0  0.03364  0.21157  0.27424  1.0000
  H   H37       1.0  0.03681  0.19091  0.25106  1.0000
  H   H38       1.0  0.04197  0.22790  0.27414  1.0000
  N   N20       1.0  0.03803  0.33202  0.17498  1.0000
  H   H39       1.0  0.03330  0.32310  0.12046  1.0000
  H   H40       1.0  0.04456  0.35105  0.16790  1.0000
  C   C61       1.0  0.31434  0.22347  0.34384  1.0000
  C   C62       1.0  0.30009  0.20899  0.30764  1.0000
  C   C63       1.0  0.29839  0.17553  0.30899  1.0000
  C   C64       1.0  0.31046  0.15543  0.34574  1.0000
  C   C65       1.0  0.30798  0.12175  0.34334  1.0000
  C   C66       1.0  0.31018  0.10399  0.26321  1.0000
  C   C67       1.0  0.30884  0.07052  0.26582  1.0000
  H   H41       1.0  0.31097  0.05804  0.20784  1.0000
  H   H42       1.0  0.28807  0.16568  0.28189  1.0000
  N   N21       1.0  0.31423  0.12003  0.18250  1.0000
  N   N22       1.0  0.28788  0.22794  0.26707  1.0000
  O   O21       1.0  0.30368  0.11537  0.12257  1.0000
  O   O22       1.0  0.27436  0.22486  0.30598  1.0000
  O   O23       1.0  0.32790  0.11150  0.15290  1.0000
  O   O24       1.0  0.28615  0.22155  0.18495  1.0000
  C   C68       1.0  0.69572  0.78666  0.34385  1.0000
  C   C69       1.0  0.70998  0.80112  0.30772  1.0000
  C   C70       1.0  0.71171  0.83458  0.30916  1.0000
  C   C71       1.0  0.69965  0.85469  0.34596  1.0000
  C   C72       1.0  0.70216  0.88837  0.34365  1.0000
  C   C73       1.0  0.69998  0.90615  0.26356  1.0000
  C   C74       1.0  0.70137  0.93961  0.26620  1.0000
  H   H43       1.0  0.69925  0.95212  0.20825  1.0000
  H   H44       1.0  0.72203  0.84441  0.28212  1.0000
  N   N23       1.0  0.69589  0.89015  0.18284  1.0000
  N   N24       1.0  0.72219  0.78217  0.26712  1.0000
  O   O25       1.0  0.70644  0.89477  0.12286  1.0000
  O   O26       1.0  0.73571  0.78521  0.30607  1.0000
  O   O27       1.0  0.68223  0.89877  0.15330  1.0000
  O   O28       1.0  0.72393  0.78858  0.18502  1.0000
  C   C75       1.0  0.18532  0.66956  0.30528  1.0000
  C   C76       1.0  0.18374  0.70302  0.30693  1.0000
  H   H45       1.0  0.17337  0.71272  0.28009  1.0000
  C   C77       1.0  0.20505  0.55398  0.34093  1.0000
  C   C78       1.0  0.20735  0.57173  0.26034  1.0000
  C   C79       1.0  0.20597  0.60524  0.26344  1.0000
  H   H46       1.0  0.20735  0.61794  0.20514  1.0000
  N   N25       1.0  0.17284  0.65210  0.27058  1.0000
  H   H47       1.0  0.16301  0.66211  0.24723  1.0000
  H   H48       1.0  0.17308  0.62913  0.27001  1.0000
  N   N26       1.0  0.21037  0.55765  0.17958  1.0000
  H   H49       1.0  0.21175  0.57007  0.12489  1.0000
  H   H50       1.0  0.21132  0.53484  0.17364  1.0000
  C   C80       1.0  0.82488  0.34060  0.30511  1.0000
  C   C81       1.0  0.82649  0.30715  0.30686  1.0000
  H   H51       1.0  0.83686  0.29746  0.28006  1.0000
  C   C82       1.0  0.80502  0.45612  0.34053  1.0000
  C   C83       1.0  0.80272  0.43835  0.25998  1.0000
  C   C84       1.0  0.80415  0.40485  0.26313  1.0000
  H   H52       1.0  0.80277  0.39213  0.20486  1.0000
  N   N27       1.0  0.83734  0.35809  0.27034  1.0000
  H   H53       1.0  0.84717  0.34810  0.24692  1.0000
  H   H54       1.0  0.83707  0.38105  0.26956  1.0000
  N   N28       1.0  0.79968  0.45241  0.17922  1.0000
  H   H55       1.0  0.79829  0.43998  0.12456  1.0000
  H   H56       1.0  0.79870  0.47522  0.17326  1.0000
  C   C85       1.0  0.22905  0.44666  0.33427  1.0000
  C   C86       1.0  0.22792  0.41591  0.29532  1.0000
  C   C87       1.0  0.24148  0.39507  0.29796  1.0000
  C   C88       1.0  0.25649  0.40357  0.33796  1.0000
  C   C89       1.0  0.26944  0.38051  0.33867  1.0000
  C   C90       1.0  0.27720  0.37019  0.25836  1.0000
  C   C91       1.0  0.28969  0.34697  0.26264  1.0000
  H   H57       1.0  0.29527  0.34010  0.20404  1.0000
  H   H58       1.0  0.24025  0.37302  0.27006  1.0000
  N   N29       1.0  0.27251  0.38379  0.17511  1.0000
  N   N30       1.0  0.21341  0.40627  0.25108  1.0000
  O   O29       1.0  0.26711  0.36321  0.12176  1.0000
  O   O30       1.0  0.20721  0.38223  0.28729  1.0000
  O   O31       1.0  0.28422  0.39789  0.13806  1.0000
  O   O32       1.0  0.21578  0.40070  0.16897  1.0000
  C   C92       1.0  0.78096  0.56340  0.33387  1.0000
  C   C93       1.0  0.78209  0.59413  0.29480  1.0000
  C   C94       1.0  0.76854  0.61499  0.29752  1.0000
  C   C95       1.0  0.75354  0.60652  0.33774  1.0000
  C   C96       1.0  0.74060  0.62961  0.33852  1.0000
  C   C97       1.0  0.73282  0.63988  0.25827  1.0000
  C   C98       1.0  0.72035  0.66314  0.26261  1.0000
  H   H59       1.0  0.71475  0.66998  0.20407  1.0000
  H   H60       1.0  0.76977  0.63703  0.26955  1.0000
  N   N31       1.0  0.73746  0.62623  0.17502  1.0000
  N   N32       1.0  0.79659  0.60373  0.25038  1.0000
  O   O33       1.0  0.74285  0.64677  0.12150  1.0000
  O   O34       1.0  0.80281  0.62778  0.28645  1.0000
  O   O35       1.0  0.72573  0.61213  0.13820  1.0000
  O   O36       1.0  0.79419  0.60928  0.16828  1.0000
  C   C99       1.0  0.25227  0.93448  0.31117  1.0000
  C   C100      1.0  0.26592  0.95525  0.31400  1.0000
  H   H61       1.0  0.26482  0.97719  0.28530  1.0000
  C   C101      1.0  0.21555  0.83315  0.34197  1.0000
  C   C102      1.0  0.22333  0.84322  0.26113  1.0000
  C   C103      1.0  0.23577  0.86659  0.26598  1.0000
  H   H62       1.0  0.24143  0.87364  0.20781  1.0000
  N   N33       1.0  0.23816  0.94508  0.27335  1.0000
  H   H63       1.0  0.23730  0.96639  0.24888  1.0000
  H   H64       1.0  0.22831  0.93234  0.27263  1.0000
  N   N34       1.0  0.21918  0.83139  0.17900  1.0000
  H   H65       1.0  0.22456  0.83859  0.12424  1.0000
  H   H66       1.0  0.21071  0.81549  0.17200  1.0000
  C   C104      1.0  0.75800  0.07564  0.31131  1.0000
  C   C105      1.0  0.74436  0.05484  0.31423  1.0000
  H   H67       1.0  0.74547  0.03292  0.28546  1.0000
  C   C106      1.0  0.79466  0.17705  0.34200  1.0000
  C   C107      1.0  0.78685  0.16701  0.26121  1.0000
  C   C108      1.0  0.77443  0.14361  0.26612  1.0000
  H   H68       1.0  0.76875  0.13657  0.20799  1.0000
  N   N35       1.0  0.77210  0.06508  0.27331  1.0000
  H   H69       1.0  0.77296  0.04380  0.24865  1.0000
  H   H70       1.0  0.78194  0.07787  0.27236  1.0000
  N   N36       1.0  0.79096  0.17890  0.17909  1.0000
  H   H71       1.0  0.78556  0.17172  0.12436  1.0000
  H   H72       1.0  0.79941  0.19483  0.17206  1.0000
  C   C109      1.0  0.08851  0.40611  0.34888  1.0000
  C   C110      1.0  0.10102  0.38727  0.30986  1.0000
  C   C111      1.0  0.11740  0.39817  0.31099  1.0000
  C   C112      1.0  0.12177  0.42750  0.34983  1.0000
  C   C113      1.0  0.13841  0.43748  0.34637  1.0000
  C   C114      1.0  0.14535  0.44984  0.26634  1.0000
  C   C115      1.0  0.16143  0.46211  0.26860  1.0000
  H   H73       1.0  0.16629  0.47125  0.21058  1.0000
  H   H74       1.0  0.12624  0.38449  0.28161  1.0000
  N   N37       1.0  0.13598  0.45023  0.18622  1.0000
  N   N38       1.0  0.09700  0.35843  0.26671  1.0000
  O   O37       1.0  0.14262  0.43411  0.12529  1.0000
  O   O38       1.0  0.10411  0.33533  0.30274  1.0000
  O   O39       1.0  0.13389  0.47793  0.15769  1.0000
  O   O40       1.0  0.10049  0.35902  0.18430  1.0000
  C   C116      1.0  0.92134  0.60477  0.35060  1.0000
  C   C117      1.0  0.90885  0.62342  0.31074  1.0000
  C   C118      1.0  0.89249  0.61240  0.31133  1.0000
  C   C119      1.0  0.88814  0.58310  0.35040  1.0000
  C   C120      1.0  0.87152  0.57301  0.34664  1.0000
  C   C121      1.0  0.86468  0.56037  0.26671  1.0000
  C   C122      1.0  0.84863  0.54796  0.26880  1.0000
  H   H75       1.0  0.84384  0.53862  0.21087  1.0000
  H   H76       1.0  0.88366  0.62596  0.28146  1.0000
  N   N39       1.0  0.87413  0.55983  0.18685  1.0000
  N   N40       1.0  0.91285  0.65223  0.26733  1.0000
  O   O41       1.0  0.86750  0.57573  0.12540  1.0000
  O   O42       1.0  0.90564  0.67532  0.30277  1.0000
  O   O43       1.0  0.87630  0.53208  0.15897  1.0000
  O   O44       1.0  0.90947  0.65147  0.18480  1.0000
  C   C123      1.0  0.40076  0.94655  0.29759  1.0000
  C   C124      1.0  0.41702  0.93532  0.29842  1.0000
  H   H77       1.0  0.42580  0.94921  0.26930  1.0000
  C   C125      1.0  0.33939  0.96221  0.33835  1.0000
  C   C126      1.0  0.34621  0.94943  0.25810  1.0000
  C   C127      1.0  0.36233  0.93729  0.26084  1.0000
  H   H78       1.0  0.36746  0.92865  0.20288  1.0000
  N   N41       1.0  0.39771  0.97548  0.26073  1.0000
  H   H79       1.0  0.40643  0.98831  0.23527  1.0000
  H   H80       1.0  0.38689  0.98484  0.26110  1.0000
  N   N42       1.0  0.33803  0.94908  0.17832  1.0000
  H   H81       1.0  0.34298  0.94051  0.12395  1.0000
  H   H82       1.0  0.32706  0.95755  0.17257  1.0000
  C   C128      1.0  0.60966  0.06419  0.29631  1.0000
  C   C129      1.0  0.59342  0.07557  0.29654  1.0000
  H   H83       1.0  0.58466  0.06178  0.26686  1.0000
  C   C130      1.0  0.67093  0.04799  0.33841  1.0000
  C   C131      1.0  0.66421  0.06108  0.25828  1.0000
  C   C132      1.0  0.64813  0.07335  0.26086  1.0000
  H   H84       1.0  0.64307  0.08219  0.20295  1.0000
  N   N43       1.0  0.61270  0.03528  0.25927  1.0000
  H   H85       1.0  0.60398  0.02257  0.23320  1.0000
  H   H86       1.0  0.62350  0.02585  0.25989  1.0000
  N   N44       1.0  0.67247  0.06160  0.17874  1.0000
  H   H87       1.0  0.66759  0.07038  0.12443  1.0000
  H   H88       1.0  0.68342  0.05303  0.17306  1.0000
  C   C133      1.0  0.98290  0.51328  0.30783  1.0000
  C   C134      1.0  0.97245  0.53988  0.30980  1.0000
  H   H89       1.0  0.96105  0.53767  0.28212  1.0000
  C   C135      1.0  0.03288  0.44076  0.33904  1.0000
  C   C136      1.0  0.02965  0.45826  0.25925  1.0000
  C   C137      1.0  0.01826  0.48334  0.26379  1.0000
  H   H90       1.0  0.01574  0.49613  0.20678  1.0000
  N   N45       1.0  0.97727  0.48573  0.27179  1.0000
  H   H91       1.0  0.96625  0.48406  0.24778  1.0000
  H   H92       1.0  0.98383  0.46659  0.27096  1.0000
  N   N46       1.0  0.03686  0.45166  0.17880  1.0000
  H   H93       1.0  0.03434  0.46386  0.12494  1.0000
  H   H94       1.0  0.04458  0.43438  0.17196  1.0000
  C   C138      1.0  0.53292  0.06931  0.33984  1.0000
  C   C139      1.0  0.51701  0.07197  0.30235  1.0000
  C   C140      1.0  0.50645  0.04553  0.30431  1.0000
  C   C141      1.0  0.51134  0.01643  0.34224  1.0000
  C   C142      1.0  0.49995  0.99117  0.34209  1.0000
  C   C143      1.0  0.49660  0.97379  0.26270  1.0000
  C   C144      1.0  0.48531  0.94856  0.26682  1.0000
  H   H95       1.0  0.48290  0.93598  0.20931  1.0000
  H   H96       1.0  0.49501  0.04768  0.27710  1.0000
  N   N47       1.0  0.50465  0.98180  0.18140  1.0000
  N   N48       1.0  0.51190  0.10042  0.26036  1.0000
  O   O45       1.0  0.49464  0.98988  0.12151  1.0000
  O   O46       1.0  0.49958  0.11202  0.29837  1.0000
  O   O47       1.0  0.51305  0.95914  0.15228  1.0000
  O   O48       1.0  0.50879  0.09641  0.17827  1.0000
  C   C145      1.0  0.45401  0.36550  0.34440  1.0000
  N   N49       1.0  0.46048  0.39522  0.34497  1.0000
  C   C146      1.0  0.47697  0.39957  0.34422  1.0000
  N   N50       1.0  0.48683  0.37371  0.34227  1.0000
  C   C147      1.0  0.48084  0.34363  0.34125  1.0000
  N   N51       1.0  0.46432  0.34032  0.34261  1.0000
  C   C148      1.0  0.55615  0.64441  0.34230  1.0000
  N   N52       1.0  0.54931  0.61499  0.33895  1.0000
  C   C149      1.0  0.53276  0.61083  0.33722  1.0000
  N   N53       1.0  0.52342  0.63746  0.33926  1.0000
  C   C150      1.0  0.52959  0.66732  0.34170  1.0000
  N   N54       1.0  0.54612  0.67002  0.34332  1.0000
  C   C151      1.0  0.05614  0.86550  0.34264  1.0000
  N   N55       1.0  0.04967  0.89521  0.34204  1.0000
  C   C152      1.0  0.03319  0.89957  0.34277  1.0000
  N   N56       1.0  0.02333  0.87372  0.34471  1.0000
  C   C153      1.0  0.02931  0.84364  0.34574  1.0000
  N   N57       1.0  0.04583  0.84032  0.34440  1.0000
  C   C154      1.0  0.95401  0.14441  0.34471  1.0000
  N   N58       1.0  0.96085  0.11498  0.34803  1.0000
  C   C155      1.0  0.97740  0.11083  0.34974  1.0000
  N   N59       1.0  0.98673  0.13747  0.34770  1.0000
  C   C156      1.0  0.98056  0.16733  0.34526  1.0000
  N   N60       1.0  0.96403  0.17001  0.34367  1.0000
  C   C157      1.0  0.31709  0.25723  0.34361  1.0000
  N   N61       1.0  0.30473  0.27894  0.34382  1.0000
  C   C158      1.0  0.30758  0.31073  0.34383  1.0000
  N   N62       1.0  0.32333  0.32088  0.34426  1.0000
  C   C159      1.0  0.33624  0.30053  0.34470  1.0000
  N   N63       1.0  0.33260  0.26903  0.34419  1.0000
  C   C160      1.0  0.69297  0.75291  0.34365  1.0000
  N   N64       1.0  0.70534  0.73123  0.34388  1.0000
  C   C161      1.0  0.70252  0.69944  0.34388  1.0000
  N   N65       1.0  0.68678  0.68925  0.34427  1.0000
  C   C162      1.0  0.67385  0.70956  0.34473  1.0000
  N   N66       1.0  0.67746  0.74108  0.34421  1.0000
  C   C163      1.0  0.19306  0.75724  0.34333  1.0000
  N   N67       1.0  0.20542  0.77895  0.34312  1.0000
  C   C164      1.0  0.20257  0.81073  0.34311  1.0000
  N   N68       1.0  0.18682  0.82089  0.34268  1.0000
  C   C165      1.0  0.17391  0.80055  0.34225  1.0000
  N   N69       1.0  0.17755  0.76904  0.34276  1.0000
  C   C166      1.0  0.81719  0.25292  0.34330  1.0000
  N   N70       1.0  0.80481  0.23123  0.34307  1.0000
  C   C167      1.0  0.80764  0.19945  0.34308  1.0000
  N   N71       1.0  0.82338  0.18925  0.34268  1.0000
  C   C168      1.0  0.83630  0.20957  0.34222  1.0000
  N   N72       1.0  0.83269  0.24109  0.34274  1.0000
  C   C169      1.0  0.04955  0.36098  0.34080  1.0000
  N   N73       1.0  0.06586  0.36736  0.34411  1.0000
  C   C170      1.0  0.07155  0.39779  0.34591  1.0000
  N   N74       1.0  0.06029  0.42146  0.34381  1.0000
  C   C171      1.0  0.04407  0.41562  0.34091  1.0000
  N   N75       1.0  0.03878  0.38533  0.33934  1.0000
  C   C172      1.0  0.96026  0.64995  0.34123  1.0000
  N   N76       1.0  0.94396  0.64363  0.34460  1.0000
  C   C173      1.0  0.93829  0.61324  0.34827  1.0000
  N   N77       1.0  0.94964  0.58972  0.34880  1.0000
  C   C174      1.0  0.96597  0.59498  0.34631  1.0000
  N   N78       1.0  0.97097  0.62552  0.34202  1.0000
  C   C175      1.0  0.46060  0.86098  0.34619  1.0000
  N   N79       1.0  0.44429  0.86736  0.34289  1.0000
  C   C176      1.0  0.43860  0.89779  0.34110  1.0000
  N   N80       1.0  0.44987  0.92146  0.34318  1.0000
  C   C177      1.0  0.46609  0.91562  0.34607  1.0000
  N   N81       1.0  0.47137  0.88533  0.34763  1.0000
  C   C178      1.0  0.54990  0.14994  0.34570  1.0000
  N   N82       1.0  0.56619  0.14363  0.34235  1.0000
  C   C179      1.0  0.57186  0.11323  0.33868  1.0000
  N   N83       1.0  0.56052  0.08971  0.33816  1.0000
  C   C180      1.0  0.54419  0.09497  0.34063  1.0000
  N   N84       1.0  0.53919  0.12551  0.34491  1.0000
  C   C181      1.0  0.20389  0.52033  0.34176  1.0000
  N   N85       1.0  0.21710  0.50055  0.33793  1.0000
  C   C182      1.0  0.21544  0.46825  0.33761  1.0000
  N   N86       1.0  0.19996  0.45659  0.34233  1.0000
  C   C183      1.0  0.18660  0.47548  0.34559  1.0000
  N   N87       1.0  0.18874  0.50731  0.34504  1.0000
  C   C184      1.0  0.80615  0.48977  0.34134  1.0000
  N   N88       1.0  0.79293  0.50952  0.33750  1.0000
  C   C185      1.0  0.79457  0.54182  0.33725  1.0000
  N   N89       1.0  0.81004  0.55353  0.34209  1.0000
  C   C186      1.0  0.82341  0.53467  0.34537  1.0000
  N   N90       1.0  0.82129  0.50284  0.34473  1.0000
  C   C187      1.0  0.30626  0.02033  0.34526  1.0000
  N   N91       1.0  0.29306  0.00055  0.34906  1.0000
  C   C188      1.0  0.29471  0.96825  0.34934  1.0000
  N   N92       1.0  0.31019  0.95658  0.34462  1.0000
  C   C189      1.0  0.32355  0.97548  0.34137  1.0000
  N   N93       1.0  0.32141  0.00730  0.34196  1.0000
  C   C190      1.0  0.70401  0.98977  0.34565  1.0000
  N   N94       1.0  0.71723  0.00952  0.34947  1.0000
  C   C191      1.0  0.71558  0.04182  0.34972  1.0000
  N   N95       1.0  0.70012  0.05352  0.34487  1.0000
  C   C192      1.0  0.68675  0.03466  0.34161  1.0000
  N   N96       1.0  0.68886  0.00283  0.34227  1.0000
  C   C193      1.0  0.52570  0.52327  0.37809  1.0000
  C   C194      1.0  0.53292  0.55382  0.37459  1.0000
  H   H97       1.0  0.54415  0.55695  0.40358  1.0000
  C   C195      1.0  0.48422  0.43007  0.34522  1.0000
  C   C196      1.0  0.48632  0.44797  0.42565  1.0000
  C   C197      1.0  0.49490  0.47712  0.42138  1.0000
  H   H98       1.0  0.49641  0.49007  0.47912  1.0000
  N   N97       1.0  0.53423  0.49925  0.41709  1.0000
  H   H99       1.0  0.54507  0.50266  0.44210  1.0000
  H   H100      1.0  0.53006  0.47775  0.41891  1.0000
  N   N98       1.0  0.48064  0.43789  0.50688  1.0000
  H   H101      1.0  0.48228  0.45032  0.56135  1.0000
  H   H102      1.0  0.47479  0.41804  0.51348  1.0000
  C   C198      1.0  0.98507  0.08024  0.35217  1.0000
  C   C199      1.0  0.00073  0.07517  0.39138  1.0000
  C   C200      1.0  0.00799  0.04476  0.38819  1.0000
  C   C201      1.0  0.00020  0.01868  0.34717  1.0000
  C   C202      1.0  0.00861  0.98889  0.34685  1.0000
  C   C203      1.0  0.01085  0.97104  0.42681  1.0000
  C   C204      1.0  0.01930  0.94181  0.42301  1.0000
  H   H103      1.0  0.02056  0.92892  0.48105  1.0000
  H   H104      1.0  0.01928  0.04176  0.41659  1.0000
  N   N99       1.0  0.00429  0.98248  0.50884  1.0000
  N   N100      1.0  0.00893  0.10013  0.43632  1.0000
  O   O49       1.0  0.01529  0.98691  0.56645  1.0000
  O   O50       1.0  0.02244  0.10633  0.40034  1.0000
  O   O51       1.0  0.99392  0.96372  0.54092  1.0000
  O   O52       1.0  0.01115  0.09412  0.51831  1.0000
  C   C205      1.0  0.35292  0.31130  0.34526  1.0000
  C   C206      1.0  0.35782  0.34102  0.38151  1.0000
  C   C207      1.0  0.37451  0.34994  0.38025  1.0000
  C   C208      1.0  0.38676  0.33019  0.34381  1.0000
  C   C209      1.0  0.40338  0.34088  0.34565  1.0000
  C   C210      1.0  0.41259  0.34153  0.42652  1.0000
  C   C211      1.0  0.42922  0.35075  0.42391  1.0000
  H   H105      1.0  0.43581  0.35034  0.48252  1.0000
  H   H106      1.0  0.37775  0.37139  0.40703  1.0000
  N   N101      1.0  0.40510  0.33200  0.50811  1.0000
  N   N102      1.0  0.34614  0.36124  0.42195  1.0000
  O   O53       1.0  0.40523  0.35396  0.56517  1.0000
  O   O54       1.0  0.34542  0.38759  0.38291  1.0000
  O   O55       1.0  0.41208  0.30824  0.54140  1.0000
  O   O56       1.0  0.34907  0.36566  0.50409  1.0000
  C   C212      1.0  0.65719  0.69867  0.34522  1.0000
  C   C213      1.0  0.65235  0.66897  0.38178  1.0000
  C   C214      1.0  0.63568  0.65987  0.38022  1.0000
  C   C215      1.0  0.62342  0.67941  0.34308  1.0000
  C   C216      1.0  0.60683  0.66859  0.34481  1.0000
  C   C217      1.0  0.59745  0.66888  0.42505  1.0000
  C   C218      1.0  0.58082  0.65966  0.42213  1.0000
  H   H107      1.0  0.57409  0.66084  0.48019  1.0000
  H   H108      1.0  0.63247  0.63845  0.40730  1.0000
  N   N103      1.0  0.60477  0.67929  0.50621  1.0000
  N   N104      1.0  0.66404  0.64895  0.42284  1.0000
  O   O57       1.0  0.60452  0.65796  0.56517  1.0000
  O   O58       1.0  0.66487  0.62253  0.38420  1.0000
  O   O59       1.0  0.59774  0.70341  0.53698  1.0000
  O   O60       1.0  0.66106  0.64465  0.50496  1.0000
  C   C219      1.0  0.12808  0.80032  0.37903  1.0000
  C   C220      1.0  0.14481  0.79162  0.37759  1.0000
  H   H109      1.0  0.14799  0.77016  0.40436  1.0000
  C   C221      1.0  0.07321  0.85978  0.34423  1.0000
  C   C222      1.0  0.08240  0.85935  0.42559  1.0000
  C   C223      1.0  0.09904  0.85010  0.42239  1.0000
  H   H110      1.0  0.10565  0.84948  0.48098  1.0000
  N   N105      1.0  0.11707  0.77941  0.41338  1.0000
  H   H111      1.0  0.12047  0.75888  0.43655  1.0000
  H   H112      1.0  0.10544  0.78369  0.41335  1.0000
  N   N106      1.0  0.07574  0.86691  0.50677  1.0000
  H   H113      1.0  0.08217  0.86630  0.56186  1.0000
  H   H114      1.0  0.06440  0.87329  0.51265  1.0000
  C   C224      1.0  0.88210  0.20931  0.38000  1.0000
  C   C225      1.0  0.86540  0.21820  0.37817  1.0000
  H   H115      1.0  0.86225  0.23965  0.40517  1.0000
  C   C226      1.0  0.93688  0.14962  0.34559  1.0000
  C   C227      1.0  0.92750  0.14914  0.42631  1.0000
  C   C228      1.0  0.91087  0.15846  0.42284  1.0000
  H   H116      1.0  0.90414  0.15851  0.48105  1.0000
  N   N107      1.0  0.89314  0.23000  0.41508  1.0000
  H   H117      1.0  0.88978  0.25050  0.43863  1.0000
  H   H118      1.0  0.90476  0.22550  0.41578  1.0000
  N   N108      1.0  0.93400  0.14083  0.50730  1.0000
  H   H119      1.0  0.92744  0.14090  0.56199  1.0000
  H   H120      1.0  0.94533  0.13448  0.51346  1.0000
  C   C229      1.0  0.51870  0.29410  0.37896  1.0000
  C   C230      1.0  0.50743  0.31954  0.37711  1.0000
  H   H121      1.0  0.51092  0.34065  0.40504  1.0000
  C   C231      1.0  0.54328  0.18077  0.34930  1.0000
  C   C232      1.0  0.53639  0.19321  0.42987  1.0000
  C   C233      1.0  0.52714  0.22148  0.42502  1.0000
  H   H122      1.0  0.52199  0.23034  0.48266  1.0000
  N   N109      1.0  0.53374  0.29909  0.41517  1.0000
  H   H123      1.0  0.53685  0.31965  0.43931  1.0000
  H   H124      1.0  0.54209  0.28279  0.41530  1.0000
  N   N110      1.0  0.53824  0.17884  0.51131  1.0000
  H   H125      1.0  0.53348  0.18776  0.56577  1.0000
  H   H126      1.0  0.54474  0.15979  0.51845  1.0000
  C   C234      1.0  0.49168  0.71673  0.37839  1.0000
  C   C235      1.0  0.50297  0.69134  0.37685  1.0000
  H   H127      1.0  0.49938  0.67007  0.40338  1.0000
  C   C236      1.0  0.46715  0.83008  0.34990  1.0000
  C   C237      1.0  0.47400  0.81764  0.43057  1.0000
  C   C238      1.0  0.48326  0.78939  0.42587  1.0000
  H   H128      1.0  0.48840  0.78055  0.48357  1.0000
  N   N111      1.0  0.47651  0.71156  0.41270  1.0000
  H   H129      1.0  0.47333  0.69090  0.43587  1.0000
  H   H130      1.0  0.46817  0.72789  0.41280  1.0000
  N   N112      1.0  0.47211  0.83201  0.51201  1.0000
  H   H131      1.0  0.47685  0.82308  0.56653  1.0000
  H   H132      1.0  0.46558  0.85104  0.51909  1.0000
  C   C239      1.0  0.01859  0.81681  0.34716  1.0000
  C   C240      1.0  0.02313  0.78711  0.38473  1.0000
  C   C241      1.0  0.01195  0.76154  0.38299  1.0000
  C   C242      1.0  0.99620  0.76451  0.34528  1.0000
  C   C243      1.0  0.98588  0.73725  0.34439  1.0000
  C   C244      1.0  0.97911  0.72458  0.42453  1.0000
  C   C245      1.0  0.96965  0.69657  0.42005  1.0000
  H   H133      1.0  0.96530  0.68701  0.47877  1.0000
  H   H134      1.0  0.01548  0.74029  0.40993  1.0000
  N   N113      1.0  0.98214  0.73989  0.50771  1.0000
  N   N114      1.0  0.03855  0.78324  0.42648  1.0000
  O   O61       1.0  0.98970  0.72214  0.56129  1.0000
  O   O62       1.0  0.04693  0.76223  0.38839  1.0000
  O   O63       1.0  0.96910  0.74867  0.54448  1.0000
  O   O64       1.0  0.03722  0.77655  0.50863  1.0000
  C   C246      1.0  0.99117  0.19429  0.34548  1.0000
  C   C247      1.0  0.98650  0.22415  0.38139  1.0000
  C   C248      1.0  0.99770  0.24969  0.37997  1.0000
  C   C249      1.0  0.01359  0.24650  0.34421  1.0000
  C   C250      1.0  0.02394  0.27370  0.34354  1.0000
  C   C251      1.0  0.03070  0.28631  0.42377  1.0000
  C   C252      1.0  0.04019  0.31428  0.41946  1.0000
  H   H135      1.0  0.04449  0.32385  0.47826  1.0000
  H   H136      1.0  0.99410  0.27106  0.40583  1.0000
  N   N115      1.0  0.02761  0.27097  0.50685  1.0000
  N   N116      1.0  0.97094  0.22818  0.42140  1.0000
  O   O65       1.0  0.02005  0.28874  0.56040  1.0000
  O   O66       1.0  0.96269  0.24902  0.38173  1.0000
  O   O67       1.0  0.04062  0.26211  0.54376  1.0000
  O   O68       1.0  0.97199  0.23522  0.50343  1.0000
  C   C253      1.0  0.32483  0.16955  0.38169  1.0000
  C   C254      1.0  0.32641  0.20301  0.38004  1.0000
  H   H137      1.0  0.33678  0.21271  0.40688  1.0000
  C   C255      1.0  0.30511  0.05399  0.34608  1.0000
  C   C256      1.0  0.30279  0.07173  0.42666  1.0000
  C   C257      1.0  0.30417  0.10524  0.42354  1.0000
  H   H138      1.0  0.30278  0.11794  0.48183  1.0000
  N   N117      1.0  0.33730  0.15209  0.41641  1.0000
  H   H139      1.0  0.34713  0.16209  0.43976  1.0000
  H   H140      1.0  0.33706  0.12912  0.41698  1.0000
  N   N118      1.0  0.29977  0.05765  0.50741  1.0000
  H   H141      1.0  0.29836  0.07007  0.56208  1.0000
  H   H142      1.0  0.29881  0.03483  0.51336  1.0000
  C   C258      1.0  0.68527  0.84060  0.38185  1.0000
  C   C259      1.0  0.68366  0.80714  0.38009  1.0000
  H   H143      1.0  0.67329  0.79745  0.40690  1.0000
  C   C260      1.0  0.70515  0.95612  0.34646  1.0000
  C   C261      1.0  0.70743  0.93835  0.42702  1.0000
  C   C262      1.0  0.70600  0.90484  0.42386  1.0000
  H   H144      1.0  0.70736  0.89212  0.48213  1.0000
  N   N119      1.0  0.67281  0.85808  0.41662  1.0000
  H   H145      1.0  0.66298  0.84809  0.44004  1.0000
  H   H146      1.0  0.67307  0.88105  0.41740  1.0000
  N   N120      1.0  0.71046  0.95240  0.50778  1.0000
  H   H147      1.0  0.71184  0.93996  0.56245  1.0000
  H   H148      1.0  0.71145  0.97521  0.51374  1.0000
  C   C263      1.0  0.19581  0.72348  0.34312  1.0000
  C   C264      1.0  0.21006  0.70900  0.37932  1.0000
  C   C265      1.0  0.21176  0.67554  0.37798  1.0000
  C   C266      1.0  0.19969  0.65544  0.34124  1.0000
  C   C267      1.0  0.20217  0.62176  0.34363  1.0000
  C   C268      1.0  0.19998  0.60400  0.42377  1.0000
  C   C269      1.0  0.20132  0.57053  0.42117  1.0000
  H   H149      1.0  0.19920  0.55805  0.47917  1.0000
  H   H150      1.0  0.22208  0.66569  0.40506  1.0000
  N   N121      1.0  0.19593  0.62004  0.50448  1.0000
  N   N122      1.0  0.22227  0.72794  0.41987  1.0000
  O   O69       1.0  0.20648  0.61539  0.56441  1.0000
  O   O70       1.0  0.23579  0.72486  0.38096  1.0000
  O   O71       1.0  0.18226  0.61150  0.53411  1.0000
  O   O72       1.0  0.22400  0.72156  0.50199  1.0000
  C   C270      1.0  0.81443  0.28667  0.34310  1.0000
  C   C271      1.0  0.80017  0.30112  0.37924  1.0000
  C   C272      1.0  0.79844  0.33458  0.37780  1.0000
  C   C273      1.0  0.81050  0.35469  0.34100  1.0000
  C   C274      1.0  0.80799  0.38837  0.34332  1.0000
  C   C275      1.0  0.81018  0.40615  0.42343  1.0000
  C   C276      1.0  0.80878  0.43961  0.42080  1.0000
  H   H151      1.0  0.81092  0.45211  0.47875  1.0000
  H   H152      1.0  0.78812  0.34441  0.40486  1.0000
  N   N123      1.0  0.81426  0.39014  0.50414  1.0000
  N   N124      1.0  0.78796  0.28217  0.41984  1.0000
  O   O73       1.0  0.80371  0.39476  0.56412  1.0000
  O   O74       1.0  0.77444  0.28521  0.38090  1.0000
  O   O75       1.0  0.82792  0.39876  0.53368  1.0000
  O   O76       1.0  0.78622  0.28858  0.50195  1.0000
  C   C277      1.0  0.25788  0.43447  0.37578  1.0000
  C   C278      1.0  0.24423  0.45524  0.37296  1.0000
  H   H153      1.0  0.24534  0.47718  0.40165  1.0000
  C   C279      1.0  0.29461  0.33315  0.34497  1.0000
  C   C280      1.0  0.28682  0.34321  0.42581  1.0000
  C   C281      1.0  0.27438  0.36658  0.42097  1.0000
  H   H154      1.0  0.26872  0.37364  0.47914  1.0000
  N   N125      1.0  0.27199  0.44507  0.41360  1.0000
  H   H155      1.0  0.27285  0.46638  0.43808  1.0000
  H   H156      1.0  0.28184  0.43233  0.41432  1.0000
  N   N126      1.0  0.29097  0.33138  0.50795  1.0000
  H   H157      1.0  0.28559  0.33858  0.56270  1.0000
  H   H158      1.0  0.29944  0.31548  0.51494  1.0000
  C   C282      1.0  0.75215  0.57564  0.37566  1.0000
  C   C283      1.0  0.76579  0.55484  0.37273  1.0000
  H   H159      1.0  0.76469  0.53292  0.40153  1.0000
  C   C284      1.0  0.71549  0.67704  0.34495  1.0000
  C   C285      1.0  0.72330  0.66701  0.42573  1.0000
  C   C286      1.0  0.73573  0.64361  0.42083  1.0000
  H   H160      1.0  0.74141  0.63657  0.47895  1.0000
  N   N127      1.0  0.73805  0.56508  0.41367  1.0000
  H   H161      1.0  0.73720  0.54380  0.43835  1.0000
  H   H162      1.0  0.72821  0.57786  0.41462  1.0000
  N   N128      1.0  0.71920  0.67890  0.50786  1.0000
  H   H163      1.0  0.72459  0.67172  0.56258  1.0000
  H   H164      1.0  0.71074  0.69483  0.51489  1.0000
  C   C287      1.0  0.28110  0.94666  0.35269  1.0000
  C   C288      1.0  0.28223  0.91591  0.39165  1.0000
  C   C289      1.0  0.26867  0.89508  0.38902  1.0000
  C   C290      1.0  0.25366  0.90358  0.34899  1.0000
  C   C291      1.0  0.24070  0.88052  0.34829  1.0000
  C   C292      1.0  0.23294  0.87021  0.42859  1.0000
  C   C293      1.0  0.22046  0.84698  0.42431  1.0000
  H   H165      1.0  0.21488  0.84011  0.48290  1.0000
  H   H166      1.0  0.26990  0.87303  0.41692  1.0000
  N   N129      1.0  0.23764  0.88380  0.51184  1.0000
  N   N130      1.0  0.29673  0.90628  0.43589  1.0000
  O   O77       1.0  0.24303  0.86322  0.56519  1.0000
  O   O78       1.0  0.30294  0.88223  0.39970  1.0000
  O   O79       1.0  0.22593  0.89790  0.54889  1.0000
  O   O80       1.0  0.29437  0.90071  0.51801  1.0000
  C   C294      1.0  0.72920  0.06341  0.35307  1.0000
  C   C295      1.0  0.72806  0.09414  0.39213  1.0000
  C   C296      1.0  0.74161  0.11500  0.38940  1.0000
  C   C297      1.0  0.75661  0.10653  0.34922  1.0000
  C   C298      1.0  0.76955  0.12961  0.34843  1.0000
  C   C299      1.0  0.77733  0.13989  0.42868  1.0000
  C   C300      1.0  0.78981  0.16315  0.42434  1.0000
  H   H167      1.0  0.79540  0.16999  0.48289  1.0000
  H   H168      1.0  0.74038  0.13704  0.41737  1.0000
  N   N131      1.0  0.77268  0.12624  0.51193  1.0000
  N   N132      1.0  0.71356  0.10374  0.43653  1.0000
  O   O81       1.0  0.76730  0.14678  0.56544  1.0000
  O   O82       1.0  0.70734  0.12779  0.40045  1.0000
  O   O83       1.0  0.78442  0.11215  0.54876  1.0000
  O   O84       1.0  0.71595  0.10929  0.51863  1.0000
  C   C301      1.0  0.10940  0.44655  0.38939  1.0000
  C   C302      1.0  0.09313  0.43532  0.38858  1.0000
  H   H169      1.0  0.08435  0.44921  0.41771  1.0000
  C   C303      1.0  0.17076  0.46222  0.34861  1.0000
  C   C304      1.0  0.16393  0.44945  0.42887  1.0000
  C   C305      1.0  0.14782  0.43731  0.42612  1.0000
  H   H170      1.0  0.14269  0.42867  0.48409  1.0000
  N   N133      1.0  0.11244  0.47549  0.42624  1.0000
  H   H171      1.0  0.10372  0.48831  0.45173  1.0000
  H   H172      1.0  0.12326  0.48485  0.42587  1.0000
  N   N134      1.0  0.17212  0.44910  0.50865  1.0000
  H   H173      1.0  0.16716  0.44054  0.56304  1.0000
  H   H174      1.0  0.18309  0.45757  0.51441  1.0000
  C   C306      1.0  0.90049  0.56420  0.39066  1.0000
  C   C307      1.0  0.91673  0.57557  0.39044  1.0000
  H   H175      1.0  0.92549  0.56179  0.42011  1.0000
  C   C308      1.0  0.83923  0.54800  0.34856  1.0000
  C   C309      1.0  0.84594  0.56109  0.42870  1.0000
  C   C310      1.0  0.86203  0.57336  0.42612  1.0000
  H   H176      1.0  0.86709  0.58219  0.48403  1.0000
  N   N135      1.0  0.89746  0.53529  0.42771  1.0000
  H   H177      1.0  0.90617  0.52258  0.45377  1.0000
  H   H178      1.0  0.88666  0.52585  0.42708  1.0000
  N   N136      1.0  0.83769  0.56160  0.50825  1.0000
  H   H179      1.0  0.84257  0.57037  0.56255  1.0000
  H   H180      1.0  0.82674  0.55303  0.51393  1.0000
  C   C311      1.0  0.42164  0.90611  0.33813  1.0000
  C   C312      1.0  0.40913  0.88727  0.37712  1.0000
  C   C313      1.0  0.39276  0.89816  0.37598  1.0000
  C   C314      1.0  0.38838  0.92749  0.33714  1.0000
  C   C315      1.0  0.37175  0.93747  0.34060  1.0000
  C   C316      1.0  0.36480  0.94983  0.42061  1.0000
  C   C317      1.0  0.34873  0.96211  0.41837  1.0000
  H   H181      1.0  0.34386  0.97125  0.47637  1.0000
  H   H182      1.0  0.38391  0.88448  0.40533  1.0000
  N   N137      1.0  0.37418  0.95024  0.50074  1.0000
  N   N138      1.0  0.41315  0.85842  0.42026  1.0000
  O   O85       1.0  0.36753  0.93412  0.56169  1.0000
  O   O86       1.0  0.40604  0.83533  0.38420  1.0000
  O   O87       1.0  0.37626  0.97794  0.52925  1.0000
  O   O88       1.0  0.40966  0.85900  0.50266  1.0000
  C   C318      1.0  0.58881  0.10476  0.33638  1.0000
  C   C319      1.0  0.60131  0.12342  0.37622  1.0000
  C   C320      1.0  0.61766  0.11239  0.37563  1.0000
  C   C321      1.0  0.62202  0.08309  0.33656  1.0000
  C   C322      1.0  0.63863  0.07300  0.34033  1.0000
  C   C323      1.0  0.64547  0.06035  0.42026  1.0000
  C   C324      1.0  0.66152  0.04795  0.41816  1.0000
  H   H183      1.0  0.66631  0.03860  0.47611  1.0000
  H   H184      1.0  0.62650  0.12596  0.40549  1.0000
  N   N139      1.0  0.63602  0.05982  0.50011  1.0000
  N   N140      1.0  0.59730  0.15223  0.41961  1.0000
  O   O89       1.0  0.64265  0.07572  0.56157  1.0000
  O   O90       1.0  0.60452  0.17532  0.38415  1.0000
  O   O91       1.0  0.63385  0.03206  0.52798  1.0000
  O   O92       1.0  0.60069  0.15148  0.50214  1.0000
  C   C325      1.0  0.97724  0.56932  0.34710  1.0000
  C   C326      1.0  0.99314  0.57198  0.38461  1.0000
  C   C327      1.0  0.00370  0.54553  0.38265  1.0000
  C   C328      1.0  0.99881  0.51643  0.34472  1.0000
  C   C329      1.0  0.01021  0.49118  0.34487  1.0000
  C   C330      1.0  0.01356  0.47381  0.42427  1.0000
  C   C331      1.0  0.02485  0.44858  0.42016  1.0000
  H   H185      1.0  0.02726  0.43600  0.47767  1.0000
  H   H186      1.0  0.01514  0.54768  0.40987  1.0000
  N   N141      1.0  0.00552  0.48183  0.50557  1.0000
  N   N142      1.0  0.99825  0.60042  0.42661  1.0000
  O   O93       1.0  0.01552  0.48991  0.56545  1.0000
  O   O94       1.0  0.01058  0.61203  0.38862  1.0000
  O   O95       1.0  0.99711  0.45917  0.53472  1.0000
  O   O96       1.0  0.00136  0.59641  0.50871  1.0000
  C   C332      1.0  0.52725  0.01327  0.37910  1.0000
  C   C333      1.0  0.53771  0.03988  0.37712  1.0000
  H   H187      1.0  0.54910  0.03766  0.40480  1.0000
  C   C334      1.0  0.47728  0.94075  0.34793  1.0000
  C   C335      1.0  0.48050  0.95827  0.42771  1.0000
  C   C336      1.0  0.49189  0.98335  0.42316  1.0000
  H   H188      1.0  0.49440  0.99614  0.48016  1.0000
  N   N143      1.0  0.53288  0.98572  0.41515  1.0000
  H   H189      1.0  0.54390  0.98406  0.43924  1.0000
  H   H190      1.0  0.52632  0.96660  0.41610  1.0000
  N   N144      1.0  0.47328  0.95168  0.50814  1.0000
  H   H191      1.0  0.47580  0.96389  0.56200  1.0000
  H   H192      1.0  0.46556  0.93440  0.51500  1.0000
