data_image0
_chemical_formula_structural       C3HNO2C3HNO2C3HNO2C3HNO2C3HNO2C3HNO2C3HNO2C3HNO2C3HNO2C3HNO2C3HNO2C3HNO2C3HNO2C3HNO2C3HNO2C3HNO2C3HNO2C3HNO2NC18H12NC18H12NC18H12NC18H12NC18H12NC18H12NC18H12NC18H12NC18H12NC18H12NC18H12NC18H12C3HNO2C3HNO2C3HNO2C3HNO2C3HNO2C3HNO2C3HNO2C3HNO2C3HNO2C3HNO2C3HNO2C3HNO2C3HNO2C3HNO2C3HNO2C3HNO2C3HNO2C3HNO2
_chemical_formula_sum              "C324 H180 N48 O72"
_cell_length_a       64.2906
_cell_length_b       64.2906
_cell_length_c       14.7295
_cell_angle_alpha    90
_cell_angle_beta     90
_cell_angle_gamma    120

_space_group_name_H-M_alt    "P 1"
_space_group_IT_number       1

loop_
  _space_group_symop_operation_xyz
  'x, y, z'

loop_
  _atom_site_type_symbol
  _atom_site_label
  _atom_site_symmetry_multiplicity
  _atom_site_fract_x
  _atom_site_fract_y
  _atom_site_fract_z
  _atom_site_occupancy
  C   C1        1.0  0.19231  0.36543  0.34737  1.0000
  C   C2        1.0  0.20739  0.37939  0.27443  1.0000
  C   C3        1.0  0.21979  0.40494  0.27843  1.0000
  H   H1        1.0  0.23084  0.41426  0.22542  1.0000
  N   N1        1.0  0.21076  0.36773  0.19898  1.0000
  O   O1        1.0  0.23231  0.37299  0.19102  1.0000
  O   O2        1.0  0.20419  0.37297  0.12624  1.0000
  C   C4        1.0  0.64484  0.81878  0.34729  1.0000
  C   C5        1.0  0.63087  0.81962  0.27381  1.0000
  C   C6        1.0  0.60533  0.80648  0.27784  1.0000
  H   H2        1.0  0.59600  0.80802  0.22442  1.0000
  N   N2        1.0  0.64253  0.83437  0.19773  1.0000
  O   O3        1.0  0.63729  0.82230  0.12563  1.0000
  O   O4        1.0  0.63726  0.85063  0.18844  1.0000
  C   C7        1.0  0.19151  0.81798  0.34710  1.0000
  C   C8        1.0  0.19051  0.80303  0.27389  1.0000
  C   C9        1.0  0.20365  0.79062  0.27785  1.0000
  H   H3        1.0  0.20200  0.77966  0.22464  1.0000
  N   N3        1.0  0.17560  0.79979  0.19816  1.0000
  O   O5        1.0  0.18753  0.80648  0.12570  1.0000
  O   O6        1.0  0.15933  0.77825  0.18956  1.0000
  C   C10       1.0  0.82678  0.63605  0.34724  1.0000
  C   C11       1.0  0.81172  0.62208  0.27427  1.0000
  C   C12       1.0  0.79932  0.59654  0.27826  1.0000
  H   H4        1.0  0.78828  0.58722  0.22523  1.0000
  N   N4        1.0  0.80835  0.63375  0.19882  1.0000
  O   O7        1.0  0.78681  0.62849  0.19081  1.0000
  O   O8        1.0  0.81493  0.62852  0.12608  1.0000
  C   C13       1.0  0.37429  0.18270  0.34738  1.0000
  C   C14       1.0  0.38826  0.18161  0.27439  1.0000
  C   C15       1.0  0.41380  0.19475  0.27838  1.0000
  H   H5        1.0  0.42313  0.19305  0.22534  1.0000
  N   N5        1.0  0.37660  0.16659  0.19891  1.0000
  O   O9        1.0  0.38185  0.15030  0.19084  1.0000
  O   O10       1.0  0.38183  0.17842  0.12620  1.0000
  C   C16       1.0  0.82758  0.18350  0.34725  1.0000
  C   C17       1.0  0.82853  0.19841  0.27397  1.0000
  C   C18       1.0  0.81539  0.21081  0.27797  1.0000
  H   H6        1.0  0.81701  0.22175  0.22471  1.0000
  N   N6        1.0  0.84339  0.20161  0.19813  1.0000
  O   O11       1.0  0.83142  0.19488  0.12578  1.0000
  O   O12       1.0  0.85967  0.22314  0.18933  1.0000
  C   C19       1.0  0.21882  0.18264  0.35303  1.0000
  C   C20       1.0  0.22330  0.20112  0.28951  1.0000
  C   C21       1.0  0.21010  0.21346  0.29403  1.0000
  H   H7        1.0  0.21405  0.22687  0.24793  1.0000
  N   N7        1.0  0.24153  0.20764  0.22345  1.0000
  O   O13       1.0  0.23321  0.20474  0.14428  1.0000
  O   O14       1.0  0.25794  0.22911  0.23235  1.0000
  C   C22       1.0  0.82768  0.02809  0.35294  1.0000
  C   C23       1.0  0.80902  0.01410  0.29008  1.0000
  C   C24       1.0  0.79668  0.98856  0.29453  1.0000
  H   H8        1.0  0.78314  0.97911  0.24893  1.0000
  N   N8        1.0  0.80230  0.02582  0.22475  1.0000
  O   O15       1.0  0.78086  0.02076  0.23473  1.0000
  O   O16       1.0  0.80497  0.02041  0.14526  1.0000
  C   C25       1.0  0.98221  0.79152  0.35288  1.0000
  C   C26       1.0  0.99622  0.78703  0.28944  1.0000
  C   C27       1.0  0.02175  0.80022  0.29395  1.0000
  H   H9        1.0  0.03121  0.79625  0.24792  1.0000
  N   N9        1.0  0.98451  0.76877  0.22344  1.0000
  O   O17       1.0  0.98993  0.77707  0.14425  1.0000
  O   O18       1.0  0.98957  0.75237  0.23245  1.0000
  C   C28       1.0  0.80032  0.81887  0.35297  1.0000
  C   C29       1.0  0.79585  0.80040  0.28944  1.0000
  C   C30       1.0  0.80904  0.78805  0.29394  1.0000
  H   H10       1.0  0.80508  0.77464  0.24786  1.0000
  N   N10       1.0  0.77762  0.79389  0.22335  1.0000
  O   O19       1.0  0.78596  0.79680  0.14419  1.0000
  O   O20       1.0  0.76122  0.77242  0.23221  1.0000
  C   C31       1.0  0.19147  0.97340  0.35301  1.0000
  C   C32       1.0  0.21000  0.98740  0.28967  1.0000
  C   C33       1.0  0.22234  0.01294  0.29418  1.0000
  H   H11       1.0  0.23579  0.02240  0.24821  1.0000
  N   N11       1.0  0.21657  0.97569  0.22378  1.0000
  O   O21       1.0  0.21373  0.98112  0.14453  1.0000
  O   O22       1.0  0.23802  0.98075  0.23295  1.0000
  C   C34       1.0  0.03690  0.20995  0.35290  1.0000
  C   C35       1.0  0.02290  0.21446  0.28949  1.0000
  C   C36       1.0  0.99736  0.20127  0.29399  1.0000
  H   H12       1.0  0.98790  0.20524  0.24797  1.0000
  N   N12       1.0  0.03461  0.23273  0.22356  1.0000
  O   O23       1.0  0.02919  0.22445  0.14434  1.0000
  O   O24       1.0  0.02955  0.24913  0.23264  1.0000
  C   C37       1.0  0.24849  0.59739  0.35272  1.0000
  C   C38       1.0  0.24881  0.60829  0.26806  1.0000
  C   C39       1.0  0.24787  0.62987  0.26587  1.0000
  H   H13       1.0  0.24754  0.63671  0.20352  1.0000
  N   N13       1.0  0.25172  0.59871  0.18543  1.0000
  O   O25       1.0  0.23466  0.59346  0.13135  1.0000
  O   O26       1.0  0.27111  0.61300  0.14648  1.0000
  C   C40       1.0  0.41283  0.64298  0.35299  1.0000
  C   C41       1.0  0.40194  0.63238  0.26835  1.0000
  C   C42       1.0  0.38035  0.60986  0.26620  1.0000
  H   H14       1.0  0.37351  0.60267  0.20388  1.0000
  N   N14       1.0  0.41153  0.64485  0.18568  1.0000
  O   O27       1.0  0.41677  0.63300  0.13169  1.0000
  O   O28       1.0  0.39725  0.64994  0.14664  1.0000
  C   C43       1.0  0.36721  0.76166  0.35258  1.0000
  C   C44       1.0  0.37780  0.76134  0.26796  1.0000
  C   C45       1.0  0.40032  0.76227  0.26584  1.0000
  H   H15       1.0  0.40751  0.76260  0.20353  1.0000
  N   N15       1.0  0.36533  0.75844  0.18529  1.0000
  O   O29       1.0  0.37716  0.77550  0.13121  1.0000
  O   O30       1.0  0.36023  0.73905  0.14636  1.0000
  C   C46       1.0  0.77056  0.40406  0.35265  1.0000
  C   C47       1.0  0.77026  0.39317  0.26800  1.0000
  C   C48       1.0  0.77120  0.37158  0.26585  1.0000
  H   H16       1.0  0.77156  0.36474  0.20352  1.0000
  N   N16       1.0  0.76738  0.40275  0.18534  1.0000
  O   O31       1.0  0.78446  0.40800  0.13133  1.0000
  O   O32       1.0  0.74800  0.38847  0.14633  1.0000
  C   C49       1.0  0.60621  0.35850  0.35288  1.0000
  C   C50       1.0  0.61711  0.36909  0.26824  1.0000
  C   C51       1.0  0.63869  0.39162  0.26609  1.0000
  H   H17       1.0  0.64554  0.39880  0.20376  1.0000
  N   N17       1.0  0.60754  0.35661  0.18559  1.0000
  O   O33       1.0  0.60229  0.36843  0.13152  1.0000
  O   O34       1.0  0.62184  0.35153  0.14664  1.0000
  C   C52       1.0  0.65183  0.23970  0.35289  1.0000
  C   C53       1.0  0.64124  0.24002  0.26826  1.0000
  C   C54       1.0  0.61871  0.23907  0.26613  1.0000
  H   H18       1.0  0.61154  0.23875  0.20379  1.0000
  N   N18       1.0  0.65372  0.24294  0.18561  1.0000
  O   O35       1.0  0.64190  0.22588  0.13150  1.0000
  O   O36       1.0  0.65882  0.26233  0.14671  1.0000
  N   N19       1.0  0.14094  0.26118  0.35443  1.0000
  C   C55       1.0  0.11511  0.24835  0.35361  1.0000
  C   C56       1.0  0.15364  0.28705  0.35307  1.0000
  C   C57       1.0  0.15379  0.24814  0.35559  1.0000
  C   C58       1.0  0.15494  0.23567  0.27830  1.0000
  C   C59       1.0  0.16731  0.22263  0.28010  1.0000
  C   C60       1.0  0.17935  0.22151  0.35913  1.0000
  C   C61       1.0  0.17876  0.23465  0.43538  1.0000
  C   C62       1.0  0.16594  0.24722  0.43420  1.0000
  C   C63       1.0  0.10185  0.24562  0.43364  1.0000
  C   C64       1.0  0.07643  0.23308  0.43331  1.0000
  C   C65       1.0  0.06299  0.22283  0.35282  1.0000
  C   C66       1.0  0.07647  0.22560  0.27293  1.0000
  C   C67       1.0  0.10187  0.23814  0.27319  1.0000
  C   C68       1.0  0.15372  0.29981  0.27477  1.0000
  C   C69       1.0  0.16607  0.32523  0.27291  1.0000
  C   C70       1.0  0.17934  0.33929  0.34865  1.0000
  C   C71       1.0  0.17884  0.32628  0.42733  1.0000
  C   C72       1.0  0.16619  0.30089  0.42971  1.0000
  H   H19       1.0  0.06770  0.23181  0.49298  1.0000
  H   H20       1.0  0.11079  0.25282  0.49321  1.0000
  H   H21       1.0  0.11075  0.23990  0.21356  1.0000
  H   H22       1.0  0.06782  0.21812  0.21322  1.0000
  H   H23       1.0  0.14672  0.23605  0.21941  1.0000
  H   H24       1.0  0.16732  0.21368  0.22260  1.0000
  H   H25       1.0  0.14454  0.29052  0.21817  1.0000
  H   H26       1.0  0.16488  0.33344  0.21528  1.0000
  H   H27       1.0  0.18802  0.33529  0.48436  1.0000
  H   H28       1.0  0.16614  0.29253  0.48878  1.0000
  H   H29       1.0  0.16558  0.25582  0.49203  1.0000
  H   H30       1.0  0.18812  0.23557  0.49280  1.0000
  N   N20       1.0  0.74910  0.87167  0.35436  1.0000
  C   C73       1.0  0.76194  0.85869  0.35360  1.0000
  C   C74       1.0  0.72323  0.85851  0.35300  1.0000
  C   C75       1.0  0.76215  0.89756  0.35546  1.0000
  C   C76       1.0  0.77440  0.91118  0.27786  1.0000
  C   C77       1.0  0.78746  0.93660  0.27964  1.0000
  C   C78       1.0  0.78881  0.94975  0.35896  1.0000
  C   C79       1.0  0.77589  0.93603  0.43556  1.0000
  C   C80       1.0  0.76330  0.91064  0.43438  1.0000
  C   C81       1.0  0.76456  0.84806  0.43355  1.0000
  C   C82       1.0  0.77710  0.83517  0.43326  1.0000
  C   C83       1.0  0.78745  0.83208  0.35287  1.0000
  C   C84       1.0  0.78479  0.84289  0.27305  1.0000
  C   C85       1.0  0.77226  0.85576  0.27329  1.0000
  C   C86       1.0  0.71047  0.84559  0.27507  1.0000
  C   C87       1.0  0.68505  0.83250  0.27323  1.0000
  C   C88       1.0  0.67099  0.83196  0.34857  1.0000
  C   C89       1.0  0.68399  0.84472  0.42687  1.0000
  C   C90       1.0  0.70938  0.85747  0.42926  1.0000
  H   H31       1.0  0.77830  0.82765  0.49286  1.0000
  H   H32       1.0  0.75728  0.84972  0.49304  1.0000
  H   H33       1.0  0.77059  0.86296  0.21371  1.0000
  H   H34       1.0  0.79235  0.84179  0.21344  1.0000
  H   H35       1.0  0.77384  0.90256  0.21877  1.0000
  H   H36       1.0  0.79625  0.94555  0.22190  1.0000
  H   H37       1.0  0.71976  0.84552  0.21877  1.0000
  H   H38       1.0  0.67684  0.82291  0.21593  1.0000
  H   H39       1.0  0.67498  0.84508  0.48359  1.0000
  H   H40       1.0  0.71773  0.86599  0.48807  1.0000
  H   H41       1.0  0.75488  0.90168  0.49244  1.0000
  H   H42       1.0  0.77515  0.94447  0.49325  1.0000
  N   N21       1.0  0.13864  0.86937  0.35436  1.0000
  C   C91       1.0  0.15164  0.89519  0.35359  1.0000
  C   C92       1.0  0.15180  0.85666  0.35294  1.0000
  C   C93       1.0  0.11275  0.85653  0.35549  1.0000
  C   C94       1.0  0.09913  0.85534  0.27814  1.0000
  C   C95       1.0  0.07371  0.84298  0.27993  1.0000
  C   C96       1.0  0.06056  0.83099  0.35901  1.0000
  C   C97       1.0  0.07428  0.83161  0.43534  1.0000
  C   C98       1.0  0.09967  0.84442  0.43416  1.0000
  C   C99       1.0  0.16216  0.90844  0.43365  1.0000
  C   C100      1.0  0.17506  0.93387  0.43336  1.0000
  C   C101      1.0  0.17825  0.94732  0.35289  1.0000
  C   C102      1.0  0.16754  0.93384  0.27297  1.0000
  C   C103      1.0  0.15468  0.90844  0.27320  1.0000
  C   C104      1.0  0.16457  0.85667  0.27477  1.0000
  C   C105      1.0  0.17765  0.84433  0.27287  1.0000
  C   C106      1.0  0.17834  0.83096  0.34842  1.0000
  C   C107      1.0  0.16573  0.83135  0.42698  1.0000
  C   C108      1.0  0.15299  0.84399  0.42941  1.0000
  H   H43       1.0  0.18250  0.94259  0.49304  1.0000
  H   H44       1.0  0.16042  0.89950  0.49321  1.0000
  H   H45       1.0  0.14755  0.89957  0.21355  1.0000
  H   H46       1.0  0.16872  0.94251  0.21328  1.0000
  H   H47       1.0  0.10774  0.86353  0.21922  1.0000
  H   H48       1.0  0.06476  0.84294  0.22238  1.0000
  H   H49       1.0  0.16454  0.86594  0.21831  1.0000
  H   H50       1.0  0.18712  0.84561  0.21536  1.0000
  H   H51       1.0  0.16549  0.82209  0.48387  1.0000
  H   H52       1.0  0.14461  0.84396  0.48840  1.0000
  H   H53       1.0  0.10862  0.84481  0.49205  1.0000
  H   H54       1.0  0.06584  0.82228  0.49279  1.0000
  N   N22       1.0  0.87818  0.74029  0.35434  1.0000
  C   C109      1.0  0.90400  0.75312  0.35353  1.0000
  C   C110      1.0  0.86547  0.71443  0.35297  1.0000
  C   C111      1.0  0.86533  0.75334  0.35550  1.0000
  C   C112      1.0  0.86417  0.76581  0.27822  1.0000
  C   C113      1.0  0.85181  0.77886  0.28004  1.0000
  C   C114      1.0  0.83978  0.77997  0.35907  1.0000
  C   C115      1.0  0.84037  0.76685  0.43534  1.0000
  C   C116      1.0  0.85318  0.75426  0.43414  1.0000
  C   C117      1.0  0.91726  0.75583  0.43356  1.0000
  C   C118      1.0  0.94268  0.76837  0.43325  1.0000
  C   C119      1.0  0.95613  0.77864  0.35278  1.0000
  C   C120      1.0  0.94265  0.77589  0.27289  1.0000
  C   C121      1.0  0.91724  0.76335  0.27314  1.0000
  C   C122      1.0  0.86539  0.70166  0.27468  1.0000
  C   C123      1.0  0.85304  0.67625  0.27281  1.0000
  C   C124      1.0  0.83976  0.66219  0.34852  1.0000
  C   C125      1.0  0.84026  0.67519  0.42720  1.0000
  C   C126      1.0  0.85290  0.70058  0.42959  1.0000
  H   H55       1.0  0.95141  0.76963  0.49291  1.0000
  H   H56       1.0  0.90832  0.74862  0.49311  1.0000
  H   H57       1.0  0.90837  0.76160  0.21350  1.0000
  H   H58       1.0  0.95130  0.78339  0.21320  1.0000
  H   H59       1.0  0.87239  0.76542  0.21932  1.0000
  H   H60       1.0  0.85179  0.78780  0.22253  1.0000
  H   H61       1.0  0.87458  0.71096  0.21809  1.0000
  H   H62       1.0  0.85424  0.66803  0.21518  1.0000
  H   H63       1.0  0.83107  0.66618  0.48422  1.0000
  H   H64       1.0  0.85295  0.70894  0.48867  1.0000
  H   H65       1.0  0.85354  0.74567  0.49196  1.0000
  H   H66       1.0  0.83101  0.76592  0.49274  1.0000
  N   N23       1.0  0.27005  0.12983  0.35443  1.0000
  C   C127      1.0  0.25722  0.14283  0.35364  1.0000
  C   C128      1.0  0.29591  0.14299  0.35307  1.0000
  C   C129      1.0  0.25700  0.10394  0.35558  1.0000
  C   C130      1.0  0.24458  0.09032  0.27823  1.0000
  C   C131      1.0  0.23152  0.06490  0.28003  1.0000
  C   C132      1.0  0.23035  0.05175  0.35912  1.0000
  C   C133      1.0  0.24345  0.06547  0.43545  1.0000
  C   C134      1.0  0.25603  0.09086  0.43426  1.0000
  C   C135      1.0  0.25454  0.15340  0.43365  1.0000
  C   C136      1.0  0.24200  0.16628  0.43335  1.0000
  C   C137      1.0  0.23170  0.16943  0.35292  1.0000
  C   C138      1.0  0.23442  0.15867  0.27304  1.0000
  C   C139      1.0  0.24696  0.14581  0.27329  1.0000
  C   C140      1.0  0.30868  0.15570  0.27483  1.0000
  C   C141      1.0  0.33410  0.16878  0.27298  1.0000
  C   C142      1.0  0.34815  0.16953  0.34865  1.0000
  C   C143      1.0  0.33515  0.15699  0.42731  1.0000
  C   C144      1.0  0.30976  0.14424  0.42967  1.0000
  H   H67       1.0  0.24076  0.17377  0.49300  1.0000
  H   H68       1.0  0.26177  0.15169  0.49318  1.0000
  H   H69       1.0  0.24868  0.13866  0.21367  1.0000
  H   H70       1.0  0.22690  0.15981  0.21339  1.0000
  H   H71       1.0  0.24500  0.09892  0.21929  1.0000
  H   H72       1.0  0.22262  0.05594  0.22247  1.0000
  H   H73       1.0  0.29939  0.15561  0.21826  1.0000
  H   H74       1.0  0.34231  0.17819  0.21537  1.0000
  H   H75       1.0  0.34416  0.15679  0.48429  1.0000
  H   H76       1.0  0.30140  0.13591  0.48871  1.0000
  H   H77       1.0  0.26460  0.09982  0.49213  1.0000
  H   H78       1.0  0.24433  0.05703  0.49292  1.0000
  N   N24       1.0  0.88047  0.13213  0.35447  1.0000
  C   C145      1.0  0.86748  0.10630  0.35365  1.0000
  C   C146      1.0  0.86730  0.14483  0.35305  1.0000
  C   C147      1.0  0.90636  0.14496  0.35555  1.0000
  C   C148      1.0  0.91997  0.14612  0.27822  1.0000
  C   C149      1.0  0.94539  0.15848  0.27997  1.0000
  C   C150      1.0  0.95855  0.17049  0.35900  1.0000
  C   C151      1.0  0.94484  0.16990  0.43532  1.0000
  C   C152      1.0  0.91945  0.15709  0.43419  1.0000
  C   C153      1.0  0.85711  0.09304  0.43382  1.0000
  C   C154      1.0  0.84424  0.06762  0.43350  1.0000
  C   C155      1.0  0.84089  0.05418  0.35286  1.0000
  C   C156      1.0  0.85145  0.06767  0.27283  1.0000
  C   C157      1.0  0.86431  0.09307  0.27310  1.0000
  C   C158      1.0  0.85451  0.14479  0.27492  1.0000
  C   C159      1.0  0.84142  0.15712  0.27305  1.0000
  C   C160      1.0  0.84076  0.17052  0.34855  1.0000
  C   C161      1.0  0.85339  0.17016  0.42706  1.0000
  C   C162      1.0  0.86614  0.15752  0.42948  1.0000
  H   H79       1.0  0.83689  0.05888  0.49326  1.0000
  H   H80       1.0  0.85896  0.10198  0.49349  1.0000
  H   H81       1.0  0.87133  0.10195  0.21339  1.0000
  H   H82       1.0  0.85016  0.05901  0.21301  1.0000
  H   H83       1.0  0.91135  0.13790  0.21934  1.0000
  H   H84       1.0  0.95434  0.15850  0.22243  1.0000
  H   H85       1.0  0.85453  0.13551  0.21847  1.0000
  H   H86       1.0  0.83193  0.15583  0.21556  1.0000
  H   H87       1.0  0.85366  0.17944  0.48392  1.0000
  H   H88       1.0  0.87453  0.15756  0.48845  1.0000
  H   H89       1.0  0.91051  0.15671  0.49207  1.0000
  H   H90       1.0  0.95329  0.17923  0.49276  1.0000
  N   N25       1.0  0.27037  0.52189  0.34924  1.0000
  C   C163      1.0  0.29575  0.53594  0.33305  1.0000
  C   C164      1.0  0.25751  0.49613  0.35024  1.0000
  C   C165      1.0  0.25901  0.53591  0.36531  1.0000
  C   C166      1.0  0.26812  0.55373  0.43376  1.0000
  C   C167      1.0  0.26443  0.57354  0.42980  1.0000
  C   C168      1.0  0.25020  0.57579  0.36094  1.0000
  C   C169      1.0  0.23872  0.55621  0.29960  1.0000
  C   C170      1.0  0.24355  0.53707  0.29997  1.0000
  C   C171      1.0  0.31236  0.53729  0.39885  1.0000
  C   C172      1.0  0.33630  0.55647  0.39905  1.0000
  C   C173      1.0  0.34433  0.57593  0.33721  1.0000
  C   C174      1.0  0.32787  0.57350  0.26800  1.0000
  C   C175      1.0  0.30442  0.55359  0.26401  1.0000
  C   C176      1.0  0.25720  0.48313  0.42805  1.0000
  C   C177      1.0  0.24468  0.45774  0.42875  1.0000
  C   C178      1.0  0.23131  0.44401  0.35262  1.0000
  C   C179      1.0  0.23184  0.45729  0.27469  1.0000
  C   C180      1.0  0.24471  0.48269  0.27333  1.0000
  H   H91       1.0  0.34750  0.55662  0.44858  1.0000
  H   H92       1.0  0.30672  0.52525  0.45124  1.0000
  H   H93       1.0  0.29268  0.55388  0.21777  1.0000
  H   H94       1.0  0.33215  0.58711  0.22266  1.0000
  H   H95       1.0  0.28019  0.55408  0.47991  1.0000
  H   H96       1.0  0.27383  0.58723  0.47476  1.0000
  H   H97       1.0  0.26622  0.49218  0.48522  1.0000
  H   H98       1.0  0.24574  0.44930  0.48594  1.0000
  H   H99       1.0  0.22249  0.44848  0.21765  1.0000
  H   H100      1.0  0.24469  0.49142  0.21528  1.0000
  H   H101      1.0  0.23712  0.52495  0.24784  1.0000
  H   H102      1.0  0.22750  0.55619  0.25042  1.0000
  N   N26       1.0  0.48836  0.74034  0.34904  1.0000
  C   C181      1.0  0.47431  0.75168  0.33302  1.0000
  C   C182      1.0  0.51413  0.75324  0.35011  1.0000
  C   C183      1.0  0.47434  0.71495  0.36529  1.0000
  C   C184      1.0  0.45656  0.70628  0.43389  1.0000
  C   C185      1.0  0.43672  0.68279  0.42989  1.0000
  C   C186      1.0  0.43445  0.66628  0.36116  1.0000
  C   C187      1.0  0.45403  0.67433  0.29987  1.0000
  C   C188      1.0  0.47314  0.69831  0.29997  1.0000
  C   C189      1.0  0.47292  0.76694  0.39868  1.0000
  C   C190      1.0  0.45372  0.77167  0.39883  1.0000
  C   C191      1.0  0.43427  0.76023  0.33694  1.0000
  C   C192      1.0  0.43673  0.74622  0.26774  1.0000
  C   C193      1.0  0.45660  0.74260  0.26419  1.0000
  C   C194      1.0  0.52712  0.76615  0.42759  1.0000
  C   C195      1.0  0.55251  0.77904  0.42830  1.0000
  C   C196      1.0  0.56625  0.77919  0.35256  1.0000
  C   C197      1.0  0.55298  0.76621  0.27497  1.0000
  C   C198      1.0  0.52758  0.75368  0.27355  1.0000
  H   H103      1.0  0.45358  0.78275  0.44825  1.0000
  H   H104      1.0  0.48496  0.77338  0.45105  1.0000
  H   H105      1.0  0.45639  0.73067  0.21770  1.0000
  H   H106      1.0  0.42312  0.73685  0.22242  1.0000
  H   H107      1.0  0.45616  0.71801  0.47983  1.0000
  H   H108      1.0  0.42302  0.67854  0.47478  1.0000
  H   H109      1.0  0.51807  0.76626  0.48454  1.0000
  H   H110      1.0  0.56094  0.78870  0.48522  1.0000
  H   H111      1.0  0.56180  0.76552  0.21820  1.0000
  H   H112      1.0  0.51886  0.74479  0.21570  1.0000
  H   H113      1.0  0.48529  0.70396  0.24792  1.0000
  H   H114      1.0  0.45404  0.66312  0.25073  1.0000
  N   N27       1.0  0.26987  0.73988  0.34858  1.0000
  C   C199      1.0  0.25852  0.71449  0.33269  1.0000
  C   C200      1.0  0.25699  0.75275  0.34973  1.0000
  C   C201      1.0  0.29525  0.75122  0.36495  1.0000
  C   C202      1.0  0.30393  0.74214  0.43358  1.0000
  C   C203      1.0  0.32741  0.74577  0.42956  1.0000
  C   C204      1.0  0.34392  0.75999  0.36074  1.0000
  C   C205      1.0  0.33585  0.77149  0.29936  1.0000
  C   C206      1.0  0.31188  0.76664  0.29953  1.0000
  C   C207      1.0  0.24326  0.69786  0.39842  1.0000
  C   C208      1.0  0.23849  0.67392  0.39861  1.0000
  C   C209      1.0  0.24993  0.66588  0.33682  1.0000
  C   C210      1.0  0.26398  0.68235  0.26766  1.0000
  C   C211      1.0  0.26757  0.70582  0.26389  1.0000
  C   C212      1.0  0.24421  0.75296  0.42741  1.0000
  C   C213      1.0  0.23134  0.76548  0.42817  1.0000
  C   C214      1.0  0.23108  0.77896  0.35225  1.0000
  C   C215      1.0  0.24392  0.77854  0.27445  1.0000
  C   C216      1.0  0.25644  0.76566  0.27301  1.0000
  H   H115      1.0  0.22744  0.66272  0.44815  1.0000
  H   H116      1.0  0.23684  0.70349  0.45077  1.0000
  H   H117      1.0  0.27950  0.71752  0.21734  1.0000
  H   H118      1.0  0.27329  0.67806  0.22224  1.0000
  H   H119      1.0  0.29220  0.73001  0.47955  1.0000
  H   H120      1.0  0.33168  0.73634  0.47446  1.0000
  H   H121      1.0  0.24416  0.74386  0.48446  1.0000
  H   H122      1.0  0.22176  0.76433  0.48524  1.0000
  H   H123      1.0  0.24453  0.78797  0.21755  1.0000
  H   H124      1.0  0.26525  0.76576  0.21503  1.0000
  H   H125      1.0  0.30622  0.77312  0.24748  1.0000
  H   H126      1.0  0.34707  0.78270  0.25021  1.0000
  N   N28       1.0  0.74871  0.47959  0.34892  1.0000
  C   C217      1.0  0.72332  0.46556  0.33297  1.0000
  C   C218      1.0  0.76158  0.50534  0.35000  1.0000
  C   C219      1.0  0.76006  0.46556  0.36508  1.0000
  C   C220      1.0  0.75093  0.44773  0.43347  1.0000
  C   C221      1.0  0.75464  0.42793  0.42967  1.0000
  C   C222      1.0  0.76887  0.42567  0.36085  1.0000
  C   C223      1.0  0.78036  0.44525  0.29949  1.0000
  C   C224      1.0  0.77552  0.46438  0.29974  1.0000
  C   C225      1.0  0.70669  0.46420  0.39873  1.0000
  C   C226      1.0  0.68276  0.44502  0.39896  1.0000
  C   C227      1.0  0.67470  0.42556  0.33710  1.0000
  C   C228      1.0  0.69117  0.42797  0.26792  1.0000
  C   C229      1.0  0.71464  0.44784  0.26417  1.0000
  C   C230      1.0  0.76188  0.51834  0.42780  1.0000
  C   C231      1.0  0.77440  0.54373  0.42854  1.0000
  C   C232      1.0  0.78779  0.55746  0.35245  1.0000
  C   C233      1.0  0.78727  0.54419  0.27452  1.0000
  C   C234      1.0  0.77440  0.51879  0.27312  1.0000
  H   H127      1.0  0.67155  0.44490  0.44843  1.0000
  H   H128      1.0  0.71233  0.47625  0.45106  1.0000
  H   H129      1.0  0.72635  0.44761  0.21761  1.0000
  H   H130      1.0  0.68688  0.41438  0.22248  1.0000
  H   H131      1.0  0.73888  0.44738  0.47973  1.0000
  H   H132      1.0  0.74522  0.41424  0.47461  1.0000
  H   H133      1.0  0.75284  0.50928  0.48494  1.0000
  H   H134      1.0  0.77332  0.55216  0.48572  1.0000
  H   H135      1.0  0.79663  0.55301  0.21750  1.0000
  H   H136      1.0  0.77442  0.51006  0.21508  1.0000
  H   H137      1.0  0.78198  0.47651  0.24765  1.0000
  H   H138      1.0  0.79158  0.44526  0.25033  1.0000
  N   N29       1.0  0.53075  0.26112  0.34906  1.0000
  C   C235      1.0  0.54480  0.24976  0.33312  1.0000
  C   C236      1.0  0.50500  0.24822  0.35014  1.0000
  C   C237      1.0  0.54478  0.28651  0.36522  1.0000
  C   C238      1.0  0.56258  0.29518  0.43371  1.0000
  C   C239      1.0  0.58237  0.31869  0.42982  1.0000
  C   C240      1.0  0.58461  0.33519  0.36106  1.0000
  C   C241      1.0  0.56503  0.32710  0.29969  1.0000
  C   C242      1.0  0.54592  0.30312  0.29988  1.0000
  C   C243      1.0  0.54613  0.23449  0.39886  1.0000
  C   C244      1.0  0.56532  0.22974  0.39904  1.0000
  C   C245      1.0  0.58478  0.24116  0.33718  1.0000
  C   C246      1.0  0.58236  0.25520  0.26800  1.0000
  C   C247      1.0  0.56249  0.25881  0.26425  1.0000
  C   C248      1.0  0.49201  0.23553  0.42794  1.0000
  C   C249      1.0  0.46661  0.22265  0.42869  1.0000
  C   C250      1.0  0.45288  0.22230  0.35259  1.0000
  C   C251      1.0  0.46615  0.23506  0.27466  1.0000
  C   C252      1.0  0.49155  0.24759  0.27326  1.0000
  H   H139      1.0  0.56544  0.21865  0.44847  1.0000
  H   H140      1.0  0.53408  0.22807  0.45119  1.0000
  H   H141      1.0  0.56271  0.27074  0.21771  1.0000
  H   H142      1.0  0.59595  0.26451  0.22255  1.0000
  H   H143      1.0  0.56292  0.28348  0.47999  1.0000
  H   H144      1.0  0.59604  0.32300  0.47492  1.0000
  H   H145      1.0  0.50106  0.23555  0.48509  1.0000
  H   H146      1.0  0.45818  0.21314  0.48586  1.0000
  H   H147      1.0  0.45733  0.23559  0.21764  1.0000
  H   H148      1.0  0.50027  0.25634  0.21521  1.0000
  H   H149      1.0  0.53380  0.29744  0.24777  1.0000
  H   H150      1.0  0.56502  0.33830  0.25052  1.0000
  N   N30       1.0  0.74921  0.26160  0.34897  1.0000
  C   C253      1.0  0.76054  0.28698  0.33279  1.0000
  C   C254      1.0  0.76209  0.24872  0.35004  1.0000
  C   C255      1.0  0.72382  0.25027  0.36521  1.0000
  C   C256      1.0  0.71515  0.25939  0.43369  1.0000
  C   C257      1.0  0.69164  0.25568  0.42982  1.0000
  C   C258      1.0  0.67514  0.24142  0.36107  1.0000
  C   C259      1.0  0.68323  0.22992  0.29972  1.0000
  C   C260      1.0  0.70721  0.23480  0.29987  1.0000
  C   C261      1.0  0.77581  0.30360  0.39855  1.0000
  C   C262      1.0  0.78057  0.32754  0.39872  1.0000
  C   C263      1.0  0.76914  0.33557  0.33687  1.0000
  C   C264      1.0  0.75512  0.31911  0.26764  1.0000
  C   C265      1.0  0.75154  0.29565  0.26382  1.0000
  C   C266      1.0  0.77491  0.24854  0.42765  1.0000
  C   C267      1.0  0.78778  0.23602  0.42838  1.0000
  C   C268      1.0  0.78801  0.22251  0.35249  1.0000
  C   C269      1.0  0.77514  0.22292  0.27474  1.0000
  C   C270      1.0  0.76262  0.23580  0.27334  1.0000
  H   H151      1.0  0.79161  0.33873  0.44830  1.0000
  H   H152      1.0  0.78218  0.29795  0.45101  1.0000
  H   H153      1.0  0.73959  0.28390  0.21742  1.0000
  H   H154      1.0  0.74581  0.32339  0.22219  1.0000
  H   H155      1.0  0.72686  0.27143  0.47996  1.0000
  H   H156      1.0  0.68733  0.26504  0.47491  1.0000
  H   H157      1.0  0.77497  0.25765  0.48469  1.0000
  H   H158      1.0  0.79738  0.23719  0.48540  1.0000
  H   H159      1.0  0.77451  0.21347  0.21786  1.0000
  H   H160      1.0  0.75379  0.23569  0.21539  1.0000
  H   H161      1.0  0.71288  0.22835  0.24774  1.0000
  H   H162      1.0  0.67203  0.21872  0.25050  1.0000
  C   C271      1.0  0.21813  0.41789  0.35333  1.0000
  C   C272      1.0  0.20304  0.40394  0.42625  1.0000
  C   C273      1.0  0.19063  0.37841  0.42217  1.0000
  H   H163      1.0  0.17959  0.36910  0.47524  1.0000
  N   N31       1.0  0.19973  0.41563  0.50178  1.0000
  O   O37       1.0  0.20630  0.41038  0.57451  1.0000
  O   O38       1.0  0.17822  0.41046  0.50985  1.0000
  C   C274      1.0  0.59238  0.79214  0.35329  1.0000
  C   C275      1.0  0.60633  0.79127  0.42674  1.0000
  C   C276      1.0  0.63187  0.80438  0.42264  1.0000
  H   H164      1.0  0.64118  0.80284  0.47612  1.0000
  N   N32       1.0  0.59466  0.77655  0.50291  1.0000
  O   O39       1.0  0.59990  0.78862  0.57500  1.0000
  O   O40       1.0  0.59984  0.76024  0.51227  1.0000
  C   C277      1.0  0.21813  0.79214  0.35301  1.0000
  C   C278      1.0  0.21916  0.80711  0.42619  1.0000
  C   C279      1.0  0.20605  0.81954  0.42212  1.0000
  H   H165      1.0  0.20770  0.83048  0.47541  1.0000
  N   N33       1.0  0.23402  0.81029  0.50201  1.0000
  O   O41       1.0  0.25037  0.83179  0.51070  1.0000
  O   O42       1.0  0.22209  0.80359  0.57445  1.0000
  C   C280      1.0  0.80096  0.58358  0.35318  1.0000
  C   C281      1.0  0.81604  0.59753  0.42610  1.0000
  C   C282      1.0  0.82846  0.62307  0.42204  1.0000
  H   H166      1.0  0.83949  0.63237  0.47513  1.0000
  N   N34       1.0  0.81934  0.58584  0.50166  1.0000
  O   O43       1.0  0.81276  0.59108  0.57437  1.0000
  O   O44       1.0  0.84086  0.59101  0.50977  1.0000
  C   C283      1.0  0.42676  0.20935  0.35332  1.0000
  C   C284      1.0  0.41281  0.21047  0.42627  1.0000
  C   C285      1.0  0.38727  0.19734  0.42221  1.0000
  H   H167      1.0  0.37796  0.19906  0.47531  1.0000
  N   N35       1.0  0.42449  0.22545  0.50185  1.0000
  O   O45       1.0  0.41926  0.21362  0.57454  1.0000
  O   O46       1.0  0.41932  0.24179  0.51000  1.0000
  C   C286      1.0  0.80096  0.20934  0.35322  1.0000
  C   C287      1.0  0.79998  0.19441  0.42647  1.0000
  C   C288      1.0  0.81309  0.18198  0.42238  1.0000
  H   H168      1.0  0.81147  0.17106  0.47571  1.0000
  N   N36       1.0  0.78516  0.19127  0.50241  1.0000
  O   O47       1.0  0.76883  0.16977  0.51131  1.0000
  O   O48       1.0  0.79714  0.19801  0.57473  1.0000
  C   C289      1.0  0.19220  0.20833  0.36033  1.0000
  C   C290      1.0  0.18745  0.18951  0.42310  1.0000
  C   C291      1.0  0.20068  0.17729  0.41855  1.0000
  H   H169      1.0  0.19655  0.16365  0.46367  1.0000
  N   N37       1.0  0.16904  0.18047  0.48934  1.0000
  O   O49       1.0  0.14876  0.17482  0.45753  1.0000
  O   O50       1.0  0.17380  0.19424  0.55605  1.0000
  C   C292      1.0  0.80201  0.97578  0.36015  1.0000
  C   C293      1.0  0.82101  0.98984  0.42224  1.0000
  C   C294      1.0  0.83323  0.01530  0.41776  1.0000
  H   H170      1.0  0.84700  0.02481  0.46239  1.0000
  N   N38       1.0  0.83025  0.98046  0.48765  1.0000
  O   O51       1.0  0.83581  0.96584  0.45503  1.0000
  O   O52       1.0  0.81669  0.97144  0.55487  1.0000
  C   C295      1.0  0.03453  0.81814  0.36021  1.0000
  C   C296      1.0  0.02046  0.82291  0.42288  1.0000
  C   C297      1.0  0.99501  0.80969  0.41832  1.0000
  H   H171      1.0  0.98549  0.81383  0.46339  1.0000
  N   N39       1.0  0.02983  0.84135  0.48903  1.0000
  O   O53       1.0  0.04447  0.86162  0.45714  1.0000
  O   O54       1.0  0.03883  0.83661  0.55583  1.0000
  C   C298      1.0  0.82693  0.79316  0.36029  1.0000
  C   C299      1.0  0.83170  0.81199  0.42301  1.0000
  C   C300      1.0  0.81846  0.82421  0.41851  1.0000
  H   H172      1.0  0.82259  0.83785  0.46365  1.0000
  N   N40       1.0  0.85009  0.82100  0.48934  1.0000
  O   O55       1.0  0.87037  0.82664  0.45761  1.0000
  O   O56       1.0  0.84529  0.80723  0.55604  1.0000
  C   C301      1.0  0.21717  0.02572  0.36032  1.0000
  C   C302      1.0  0.19830  0.01165  0.42291  1.0000
  C   C303      1.0  0.18607  0.98620  0.41838  1.0000
  H   H173      1.0  0.17240  0.97669  0.46336  1.0000
  N   N41       1.0  0.18922  0.02103  0.48896  1.0000
  O   O57       1.0  0.18359  0.03566  0.45694  1.0000
  O   O58       1.0  0.20294  0.03004  0.55578  1.0000
  C   C304      1.0  0.98458  0.18333  0.36017  1.0000
  C   C305      1.0  0.99865  0.17855  0.42283  1.0000
  C   C306      1.0  0.02410  0.19177  0.41830  1.0000
  H   H174      1.0  0.03361  0.18762  0.46336  1.0000
  N   N42       1.0  0.98927  0.16010  0.48894  1.0000
  O   O59       1.0  0.97464  0.13984  0.45699  1.0000
  O   O60       1.0  0.98026  0.16482  0.55573  1.0000
  C   C307      1.0  0.24838  0.64265  0.34507  1.0000
  C   C308      1.0  0.24909  0.63228  0.42970  1.0000
  C   C309      1.0  0.24824  0.60979  0.43194  1.0000
  H   H175      1.0  0.24817  0.60276  0.49431  1.0000
  N   N43       1.0  0.25231  0.64495  0.51211  1.0000
  O   O61       1.0  0.23552  0.63321  0.56733  1.0000
  O   O62       1.0  0.27190  0.65022  0.54977  1.0000
  C   C310      1.0  0.36756  0.59762  0.34542  1.0000
  C   C311      1.0  0.37793  0.60872  0.43003  1.0000
  C   C312      1.0  0.40042  0.63034  0.43223  1.0000
  H   H176      1.0  0.40745  0.63733  0.49459  1.0000
  N   N44       1.0  0.36525  0.59929  0.51244  1.0000
  O   O63       1.0  0.37698  0.59424  0.56771  1.0000
  O   O64       1.0  0.35999  0.61362  0.55002  1.0000
  C   C313      1.0  0.41258  0.76176  0.34509  1.0000
  C   C314      1.0  0.40149  0.76107  0.42968  1.0000
  C   C315      1.0  0.37986  0.76194  0.43185  1.0000
  H   H177      1.0  0.37289  0.76201  0.49419  1.0000
  N   N45       1.0  0.41092  0.75786  0.51215  1.0000
  O   O65       1.0  0.41597  0.77466  0.56731  1.0000
  O   O66       1.0  0.39660  0.73828  0.54984  1.0000
  C   C316      1.0  0.77069  0.35881  0.34508  1.0000
  C   C317      1.0  0.76997  0.36918  0.42967  1.0000
  C   C318      1.0  0.77081  0.39166  0.43188  1.0000
  H   H178      1.0  0.77088  0.39870  0.49425  1.0000
  N   N46       1.0  0.76673  0.35651  0.51210  1.0000
  O   O67       1.0  0.78351  0.36825  0.56736  1.0000
  O   O68       1.0  0.74713  0.35124  0.54971  1.0000
  C   C319      1.0  0.65147  0.40388  0.34531  1.0000
  C   C320      1.0  0.64108  0.39279  0.42992  1.0000
  C   C321      1.0  0.61860  0.37116  0.43212  1.0000
  H   H179      1.0  0.61156  0.36419  0.49448  1.0000
  N   N47       1.0  0.65374  0.40223  0.51236  1.0000
  O   O69       1.0  0.64199  0.40729  0.56755  1.0000
  O   O70       1.0  0.65901  0.38792  0.55004  1.0000
  C   C322      1.0  0.60645  0.23959  0.34535  1.0000
  C   C323      1.0  0.61755  0.24029  0.42995  1.0000
  C   C324      1.0  0.63917  0.23942  0.43214  1.0000
  H   H180      1.0  0.64614  0.23936  0.49450  1.0000
  N   N48       1.0  0.60811  0.24351  0.51239  1.0000
  O   O71       1.0  0.60305  0.22671  0.56758  1.0000
  O   O72       1.0  0.62243  0.26310  0.55008  1.0000
