data_image0
_chemical_formula_structural       C14NC2NHCH3CHC2NC2NHCH3CHC2NC2NHCH3CHC2NC2NHCH3CHC2HC6H3CHC2HC6H3CHC2HC6H3CHC2HC6H3CHC2HC6H3CHC2HC6H3CHC2HC6H3CHC2HC6H3CHC2NC2NHCH3CHC2NC2NHCH3CHC2NC2NHCH3CHC2NC2NHCH3CHC2NC2NHCH3CHC2NC2NHCH3CHC2NC2NHCH3CHC2NC2NHCH3CHC2HC6H3CHC2HC6H3CHC2HC6H3CHC2HC6H3CHC2HC6H3CHC2HC6H3CHC2HC6H3CHC2HC6H3CHC2HC6H3CHC2HC6H3CHNCNCN5CNCN5CNCN5CNCN4CNCNCN4CNCNCN4CNCNCN4CNCNCN4CNCNCN4CNCNCN4CNCNCN4CNCNCN5CNCN5CNCN5CNCN5CNCN5CNCN5CNCN5CNCN5CNCN4C2HC6H3CHC2HC6H3CHC2HC6H3CHC2HC6H3CHC2NC2NHCH3CHC2NC2NHCH3CHC2NC2NHCH3CHC2NC2NHCH3CHC2NC2NHCH3CHC2NC2NHCH3CHC2NC2NHCH3CHC2NC2NHCH3CHC2HC6H3CHC2HC6H3CHC2HC6H3CHC2HC6H3CHC2HC6H3CHC2HC6H3CHC2HC6H3CHC2HC6H3CHC2NC2NHCH3CHC2NC2NHCH3CHC2NC2NHCH3CHC2NC2NHCH3CHC2NC2NHCH3CHC2NC2NHCH3CHC2NC2NHCH3CHC2NC2NHCH3CHC2NC2NHCH3CHC2NC2NHCH3CH
_chemical_formula_sum              "C510 N180 H300"
_cell_length_a       86.7323
_cell_length_b       86.7323
_cell_length_c       15.0073
_cell_angle_alpha    90
_cell_angle_beta     90
_cell_angle_gamma    90

_space_group_name_H-M_alt    "P 1"
_space_group_IT_number       1

loop_
  _space_group_symop_operation_xyz
  'x, y, z'

loop_
  _atom_site_type_symbol
  _atom_site_label
  _atom_site_symmetry_multiplicity
  _atom_site_fract_x
  _atom_site_fract_y
  _atom_site_fract_z
  _atom_site_occupancy
  C   C1        1.0  0.23862  0.00886  0.32231  1.0000
  C   C2        1.0  0.76076  0.99030  0.32050  1.0000
  C   C3        1.0  0.99056  0.23847  0.32253  1.0000
  C   C4        1.0  0.00914  0.76061  0.31985  1.0000
  C   C5        1.0  0.35039  0.70159  0.32674  1.0000
  C   C6        1.0  0.64919  0.29782  0.32699  1.0000
  C   C7        1.0  0.70186  0.64894  0.32727  1.0000
  C   C8        1.0  0.29811  0.35013  0.32685  1.0000
  C   C9        1.0  0.44410  0.05590  0.34297  1.0000
  C   C10       1.0  0.55683  0.94192  0.33501  1.0000
  C   C11       1.0  0.94362  0.44401  0.34300  1.0000
  C   C12       1.0  0.05758  0.55676  0.33512  1.0000
  C   C13       1.0  0.29870  0.03979  0.30539  1.0000
  C   C14       1.0  0.30949  0.03951  0.23414  1.0000
  N   N1        1.0  0.32456  0.04247  0.25238  1.0000
  C   C15       1.0  0.33017  0.04570  0.33478  1.0000
  C   C16       1.0  0.37072  0.05412  0.28409  1.0000
  N   N2        1.0  0.35573  0.04986  0.27687  1.0000
  H   H1        1.0  0.37732  0.05445  0.22765  1.0000
  C   C17       1.0  0.30574  0.03648  0.13944  1.0000
  H   H2        1.0  0.29358  0.03389  0.12878  1.0000
  H   H3        1.0  0.31246  0.02664  0.11590  1.0000
  H   H4        1.0  0.30872  0.04655  0.09941  1.0000
  C   C18       1.0  0.28302  0.03892  0.29197  1.0000
  H   H5        1.0  0.27787  0.04765  0.26086  1.0000
  C   C19       1.0  0.70077  0.95910  0.31659  1.0000
  C   C20       1.0  0.69085  0.95999  0.24148  1.0000
  N   N3        1.0  0.67538  0.95909  0.25499  1.0000
  C   C21       1.0  0.66860  0.95739  0.33600  1.0000
  C   C22       1.0  0.62772  0.95553  0.27379  1.0000
  N   N4        1.0  0.64328  0.95678  0.27041  1.0000
  H   H6        1.0  0.62160  0.95598  0.21557  1.0000
  C   C23       1.0  0.69587  0.96179  0.14770  1.0000
  H   H7        1.0  0.70836  0.96255  0.14074  1.0000
  H   H8        1.0  0.69085  0.97228  0.11998  1.0000
  H   H9        1.0  0.69187  0.95195  0.10873  1.0000
  C   C24       1.0  0.71657  0.95890  0.30927  1.0000
  H   H10       1.0  0.72172  0.94890  0.29644  1.0000
  C   C25       1.0  0.95965  0.29858  0.30558  1.0000
  C   C26       1.0  0.95994  0.30935  0.23428  1.0000
  N   N5        1.0  0.95700  0.32443  0.25246  1.0000
  C   C27       1.0  0.95379  0.33006  0.33484  1.0000
  C   C28       1.0  0.94540  0.37061  0.28398  1.0000
  N   N6        1.0  0.94965  0.35562  0.27681  1.0000
  H   H11       1.0  0.94505  0.37719  0.22748  1.0000
  C   C29       1.0  0.96296  0.30559  0.13959  1.0000
  H   H12       1.0  0.96553  0.29342  0.12898  1.0000
  H   H13       1.0  0.97280  0.31228  0.11598  1.0000
  H   H14       1.0  0.95289  0.30858  0.09959  1.0000
  C   C30       1.0  0.96050  0.28289  0.29224  1.0000
  H   H15       1.0  0.95176  0.27774  0.26121  1.0000
  C   C31       1.0  0.04046  0.70069  0.31642  1.0000
  C   C32       1.0  0.03949  0.69076  0.24136  1.0000
  N   N7        1.0  0.04039  0.67529  0.25490  1.0000
  C   C33       1.0  0.04214  0.66853  0.33588  1.0000
  C   C34       1.0  0.04390  0.62764  0.27377  1.0000
  N   N8        1.0  0.04268  0.64320  0.27036  1.0000
  H   H16       1.0  0.04341  0.62152  0.21557  1.0000
  C   C35       1.0  0.03763  0.69578  0.14762  1.0000
  H   H17       1.0  0.03690  0.70827  0.14062  1.0000
  H   H18       1.0  0.02710  0.69078  0.12018  1.0000
  H   H19       1.0  0.04743  0.69176  0.10839  1.0000
  C   C36       1.0  0.04064  0.71649  0.30908  1.0000
  H   H20       1.0  0.05067  0.72167  0.29745  1.0000
  C   C37       1.0  0.18077  0.54725  0.25201  1.0000
  C   C38       1.0  0.19637  0.54348  0.26716  1.0000
  H   H21       1.0  0.20405  0.54417  0.21535  1.0000
  C   C39       1.0  0.15498  0.55158  0.31409  1.0000
  C   C40       1.0  0.12447  0.56208  0.29628  1.0000
  C   C41       1.0  0.13435  0.56187  0.22141  1.0000
  C   C42       1.0  0.14969  0.55655  0.22918  1.0000
  C   C43       1.0  0.15992  0.55643  0.15598  1.0000
  C   C44       1.0  0.17533  0.55178  0.16727  1.0000
  H   H22       1.0  0.15632  0.56002  0.09444  1.0000
  H   H23       1.0  0.18263  0.55213  0.11373  1.0000
  H   H24       1.0  0.13043  0.56579  0.16110  1.0000
  C   C45       1.0  0.10980  0.56814  0.29017  1.0000
  H   H25       1.0  0.10838  0.57836  0.26103  1.0000
  C   C46       1.0  0.82004  0.45242  0.26153  1.0000
  C   C47       1.0  0.80431  0.45584  0.27469  1.0000
  H   H26       1.0  0.79684  0.45499  0.22193  1.0000
  C   C48       1.0  0.84570  0.44876  0.32671  1.0000
  C   C49       1.0  0.87653  0.43905  0.31233  1.0000
  C   C50       1.0  0.86689  0.43900  0.23641  1.0000
  C   C51       1.0  0.85140  0.44393  0.24242  1.0000
  C   C52       1.0  0.84144  0.44376  0.16805  1.0000
  C   C53       1.0  0.82588  0.44800  0.17749  1.0000
  H   H27       1.0  0.84534  0.44026  0.10695  1.0000
  H   H28       1.0  0.81878  0.44749  0.12307  1.0000
  H   H29       1.0  0.87109  0.43516  0.17657  1.0000
  C   C54       1.0  0.89128  0.43318  0.30754  1.0000
  H   H30       1.0  0.89289  0.42317  0.27637  1.0000
  C   C55       1.0  0.54742  0.81869  0.25208  1.0000
  C   C56       1.0  0.54367  0.80308  0.26729  1.0000
  H   H31       1.0  0.54439  0.79539  0.21554  1.0000
  C   C57       1.0  0.55169  0.84449  0.31406  1.0000
  C   C58       1.0  0.56214  0.87502  0.29612  1.0000
  C   C59       1.0  0.56195  0.86513  0.22131  1.0000
  C   C60       1.0  0.55665  0.84978  0.22913  1.0000
  C   C61       1.0  0.55657  0.83954  0.15600  1.0000
  C   C62       1.0  0.55196  0.82412  0.16735  1.0000
  H   H32       1.0  0.56014  0.84314  0.09442  1.0000
  H   H33       1.0  0.55230  0.81682  0.11381  1.0000
  H   H34       1.0  0.56587  0.86905  0.16100  1.0000
  C   C63       1.0  0.56820  0.88969  0.28999  1.0000
  H   H35       1.0  0.57840  0.89112  0.26079  1.0000
  C   C64       1.0  0.45261  0.17945  0.26164  1.0000
  C   C65       1.0  0.45608  0.19517  0.27477  1.0000
  H   H36       1.0  0.45522  0.20264  0.22202  1.0000
  C   C66       1.0  0.44890  0.15380  0.32686  1.0000
  C   C67       1.0  0.43912  0.12299  0.31254  1.0000
  C   C68       1.0  0.43909  0.13263  0.23661  1.0000
  C   C69       1.0  0.44405  0.14810  0.24260  1.0000
  C   C70       1.0  0.44388  0.15807  0.16823  1.0000
  C   C71       1.0  0.44817  0.17362  0.17762  1.0000
  H   H37       1.0  0.44036  0.15417  0.10715  1.0000
  H   H38       1.0  0.44765  0.18072  0.12323  1.0000
  H   H39       1.0  0.43523  0.12843  0.17679  1.0000
  C   C72       1.0  0.43325  0.10824  0.30776  1.0000
  H   H40       1.0  0.42323  0.10663  0.27669  1.0000
  C   C73       1.0  0.21118  0.09469  0.25387  1.0000
  C   C74       1.0  0.21790  0.08007  0.26756  1.0000
  H   H41       1.0  0.22341  0.07476  0.21543  1.0000
  C   C75       1.0  0.19867  0.11746  0.31829  1.0000
  C   C76       1.0  0.18868  0.14823  0.30413  1.0000
  C   C77       1.0  0.19454  0.14048  0.22848  1.0000
  C   C78       1.0  0.19952  0.12501  0.23439  1.0000
  C   C79       1.0  0.20580  0.11715  0.16046  1.0000
  C   C80       1.0  0.21155  0.10208  0.17008  1.0000
  H   H42       1.0  0.20658  0.12244  0.09969  1.0000
  H   H43       1.0  0.21642  0.09675  0.11612  1.0000
  H   H44       1.0  0.19551  0.14624  0.16910  1.0000
  C   C81       1.0  0.18531  0.16378  0.30011  1.0000
  H   H45       1.0  0.19273  0.17071  0.26908  1.0000
  C   C82       1.0  0.78891  0.90471  0.25448  1.0000
  C   C83       1.0  0.78219  0.91933  0.26824  1.0000
  H   H46       1.0  0.77667  0.92463  0.21613  1.0000
  C   C84       1.0  0.80139  0.88192  0.31884  1.0000
  C   C85       1.0  0.81125  0.85110  0.30469  1.0000
  C   C86       1.0  0.80542  0.85887  0.22907  1.0000
  C   C87       1.0  0.80049  0.87436  0.23496  1.0000
  C   C88       1.0  0.79422  0.88224  0.16106  1.0000
  C   C89       1.0  0.78852  0.89732  0.17068  1.0000
  H   H47       1.0  0.79341  0.87694  0.10031  1.0000
  H   H48       1.0  0.78363  0.90265  0.11679  1.0000
  H   H49       1.0  0.80442  0.85311  0.16970  1.0000
  C   C90       1.0  0.81456  0.83555  0.30069  1.0000
  H   H50       1.0  0.80710  0.82864  0.26976  1.0000
  C   C91       1.0  0.90470  0.21102  0.25392  1.0000
  C   C92       1.0  0.91932  0.21775  0.26756  1.0000
  H   H51       1.0  0.92459  0.22330  0.21546  1.0000
  C   C93       1.0  0.88196  0.19845  0.31835  1.0000
  C   C94       1.0  0.85118  0.18844  0.30425  1.0000
  C   C95       1.0  0.85892  0.19432  0.22862  1.0000
  C   C96       1.0  0.87438  0.19933  0.23451  1.0000
  C   C97       1.0  0.88223  0.20564  0.16060  1.0000
  C   C98       1.0  0.89729  0.21141  0.17018  1.0000
  H   H52       1.0  0.87692  0.20644  0.09988  1.0000
  H   H53       1.0  0.90260  0.21631  0.11626  1.0000
  H   H54       1.0  0.85315  0.19532  0.16930  1.0000
  C   C99       1.0  0.83564  0.18507  0.30027  1.0000
  H   H55       1.0  0.82871  0.19251  0.26941  1.0000
  C   C100      1.0  0.09464  0.78874  0.25501  1.0000
  C   C101      1.0  0.08001  0.78206  0.26894  1.0000
  H   H56       1.0  0.07469  0.77653  0.21695  1.0000
  C   C102      1.0  0.11748  0.80118  0.31909  1.0000
  C   C103      1.0  0.14831  0.81097  0.30469  1.0000
  C   C104      1.0  0.14051  0.80514  0.22912  1.0000
  C   C105      1.0  0.12501  0.80025  0.23516  1.0000
  C   C106      1.0  0.11710  0.79399  0.16136  1.0000
  C   C107      1.0  0.10201  0.78830  0.17116  1.0000
  H   H57       1.0  0.12238  0.79316  0.10056  1.0000
  H   H58       1.0  0.09665  0.78343  0.11732  1.0000
  H   H59       1.0  0.14626  0.80412  0.16973  1.0000
  C   C108      1.0  0.16386  0.81427  0.30059  1.0000
  H   H60       1.0  0.17076  0.80682  0.26957  1.0000
  C   C109      1.0  0.28213  0.57222  0.31262  1.0000
  C   C110      1.0  0.28912  0.58055  0.24173  1.0000
  N   N9        1.0  0.29529  0.59463  0.25916  1.0000
  C   C111      1.0  0.29532  0.60148  0.34054  1.0000
  C   C112      1.0  0.31148  0.63945  0.28633  1.0000
  N   N10       1.0  0.30669  0.62461  0.28090  1.0000
  H   H61       1.0  0.31528  0.64476  0.22960  1.0000
  C   C113      1.0  0.28991  0.57540  0.14770  1.0000
  H   H62       1.0  0.28524  0.56386  0.13780  1.0000
  H   H63       1.0  0.30192  0.57529  0.12591  1.0000
  H   H64       1.0  0.28347  0.58341  0.10573  1.0000
  C   C114      1.0  0.27286  0.55955  0.29790  1.0000
  H   H65       1.0  0.26374  0.56099  0.25841  1.0000
  C   C115      1.0  0.71812  0.42694  0.31228  1.0000
  C   C116      1.0  0.71111  0.41864  0.24132  1.0000
  N   N11       1.0  0.70483  0.40461  0.25881  1.0000
  C   C117      1.0  0.70469  0.39780  0.34028  1.0000
  C   C118      1.0  0.68825  0.35992  0.28639  1.0000
  N   N12       1.0  0.69317  0.37472  0.28079  1.0000
  H   H66       1.0  0.68446  0.35461  0.22966  1.0000
  C   C119      1.0  0.71041  0.42376  0.14721  1.0000
  H   H67       1.0  0.71520  0.43525  0.13725  1.0000
  H   H68       1.0  0.69842  0.42397  0.12521  1.0000
  H   H69       1.0  0.71681  0.41568  0.10546  1.0000
  C   C120      1.0  0.72742  0.43959  0.29764  1.0000
  H   H70       1.0  0.73661  0.43811  0.25865  1.0000
  C   C121      1.0  0.57252  0.71735  0.31230  1.0000
  C   C122      1.0  0.58084  0.71032  0.24148  1.0000
  N   N13       1.0  0.59491  0.70413  0.25905  1.0000
  C   C123      1.0  0.60175  0.70411  0.34045  1.0000
  C   C124      1.0  0.63969  0.68782  0.28666  1.0000
  N   N14       1.0  0.62486  0.69266  0.28107  1.0000
  H   H71       1.0  0.64500  0.68399  0.22999  1.0000
  C   C125      1.0  0.57569  0.70949  0.14746  1.0000
  H   H72       1.0  0.56417  0.71420  0.13747  1.0000
  H   H73       1.0  0.57555  0.69748  0.12587  1.0000
  H   H74       1.0  0.58372  0.71590  0.10540  1.0000
  C   C126      1.0  0.55984  0.72660  0.29746  1.0000
  H   H75       1.0  0.56129  0.73574  0.25809  1.0000
  C   C127      1.0  0.42724  0.28133  0.31218  1.0000
  C   C128      1.0  0.41892  0.28829  0.24118  1.0000
  N   N15       1.0  0.40487  0.29455  0.25861  1.0000
  C   C129      1.0  0.39805  0.29469  0.34008  1.0000
  C   C130      1.0  0.36015  0.31102  0.28602  1.0000
  N   N16       1.0  0.37496  0.30613  0.28049  1.0000
  H   H76       1.0  0.35483  0.31480  0.22927  1.0000
  C   C131      1.0  0.42403  0.28897  0.14706  1.0000
  H   H77       1.0  0.43554  0.28422  0.13715  1.0000
  H   H78       1.0  0.42420  0.30096  0.12492  1.0000
  H   H79       1.0  0.41597  0.28254  0.10539  1.0000
  C   C132      1.0  0.43989  0.27202  0.29767  1.0000
  H   H80       1.0  0.43838  0.26281  0.25886  1.0000
  C   C133      1.0  0.23208  0.96825  0.30491  1.0000
  C   C134      1.0  0.22681  0.95852  0.23504  1.0000
  N   N17       1.0  0.22327  0.94363  0.25443  1.0000
  C   C135      1.0  0.22433  0.93725  0.33682  1.0000
  C   C136      1.0  0.21497  0.89684  0.28851  1.0000
  N   N18       1.0  0.21723  0.91224  0.28064  1.0000
  H   H81       1.0  0.21217  0.89069  0.23267  1.0000
  C   C137      1.0  0.22510  0.96308  0.14041  1.0000
  H   H82       1.0  0.22770  0.97522  0.12887  1.0000
  H   H83       1.0  0.21325  0.96102  0.11904  1.0000
  H   H84       1.0  0.23282  0.95616  0.09925  1.0000
  C   C138      1.0  0.23834  0.98261  0.28911  1.0000
  H   H85       1.0  0.24782  0.98315  0.25177  1.0000
  C   C139      1.0  0.76682  0.03104  0.30435  1.0000
  C   C140      1.0  0.77206  0.04074  0.23429  1.0000
  N   N19       1.0  0.77570  0.05562  0.25349  1.0000
  C   C141      1.0  0.77472  0.06203  0.33586  1.0000
  C   C142      1.0  0.78439  0.10238  0.28740  1.0000
  N   N20       1.0  0.78199  0.08700  0.27956  1.0000
  H   H86       1.0  0.78720  0.10851  0.23150  1.0000
  C   C143      1.0  0.77368  0.03614  0.13967  1.0000
  H   H87       1.0  0.77098  0.02403  0.12828  1.0000
  H   H88       1.0  0.78553  0.03812  0.11800  1.0000
  H   H89       1.0  0.76598  0.04311  0.09863  1.0000
  C   C144      1.0  0.76055  0.01667  0.28901  1.0000
  H   H90       1.0  0.75086  0.01613  0.25354  1.0000
  C   C145      1.0  0.03119  0.23195  0.30541  1.0000
  C   C146      1.0  0.04090  0.22668  0.23541  1.0000
  N   N21       1.0  0.05579  0.22312  0.25463  1.0000
  C   C147      1.0  0.06220  0.22417  0.33696  1.0000
  C   C148      1.0  0.10260  0.21477  0.28822  1.0000
  N   N22       1.0  0.08720  0.21705  0.28051  1.0000
  H   H91       1.0  0.10873  0.21198  0.23229  1.0000
  C   C149      1.0  0.03630  0.22500  0.14082  1.0000
  H   H92       1.0  0.02417  0.22761  0.12942  1.0000
  H   H93       1.0  0.03835  0.21315  0.11934  1.0000
  H   H94       1.0  0.04322  0.23272  0.09965  1.0000
  C   C150      1.0  0.01684  0.23824  0.28979  1.0000
  H   H95       1.0  0.01630  0.24774  0.25263  1.0000
  C   C151      1.0  0.96841  0.76664  0.30353  1.0000
  C   C152      1.0  0.95868  0.77189  0.23363  1.0000
  N   N23       1.0  0.94381  0.77552  0.25309  1.0000
  C   C153      1.0  0.93744  0.77453  0.33556  1.0000
  C   C154      1.0  0.89707  0.78418  0.28769  1.0000
  N   N24       1.0  0.91245  0.78179  0.27962  1.0000
  H   H96       1.0  0.89091  0.78698  0.23187  1.0000
  C   C155      1.0  0.96324  0.77354  0.13896  1.0000
  H   H97       1.0  0.97535  0.77084  0.12737  1.0000
  H   H98       1.0  0.96125  0.78539  0.11746  1.0000
  H   H99       1.0  0.95625  0.76585  0.09794  1.0000
  C   C156      1.0  0.98278  0.76040  0.28789  1.0000
  H   H100      1.0  0.98334  0.75072  0.25236  1.0000
  C   C157      1.0  0.27065  0.44527  0.25777  1.0000
  C   C158      1.0  0.26678  0.46084  0.27345  1.0000
  H   H101      1.0  0.26257  0.46735  0.22187  1.0000
  C   C159      1.0  0.27862  0.42031  0.31904  1.0000
  C   C160      1.0  0.28302  0.38834  0.30020  1.0000
  C   C161      1.0  0.27877  0.39734  0.22564  1.0000
  C   C162      1.0  0.27659  0.41342  0.23391  1.0000
  C   C163      1.0  0.27202  0.42264  0.16101  1.0000
  C   C164      1.0  0.26910  0.43845  0.17281  1.0000
  H   H102      1.0  0.27043  0.41785  0.09936  1.0000
  H   H103      1.0  0.26541  0.44483  0.11952  1.0000
  H   H104      1.0  0.27699  0.39213  0.16521  1.0000
  C   C165      1.0  0.28400  0.37250  0.29338  1.0000
  H   H105      1.0  0.27568  0.36688  0.26119  1.0000
  C   C166      1.0  0.72964  0.55389  0.25700  1.0000
  C   C167      1.0  0.73355  0.53834  0.27251  1.0000
  H   H106      1.0  0.73778  0.53185  0.22088  1.0000
  C   C168      1.0  0.72159  0.57882  0.31853  1.0000
  C   C169      1.0  0.71703  0.61077  0.29993  1.0000
  C   C170      1.0  0.72131  0.60180  0.22528  1.0000
  C   C171      1.0  0.72356  0.58573  0.23341  1.0000
  C   C172      1.0  0.72815  0.57655  0.16042  1.0000
  C   C173      1.0  0.73114  0.56074  0.17208  1.0000
  H   H107      1.0  0.72968  0.58135  0.09874  1.0000
  H   H108      1.0  0.73480  0.55438  0.11866  1.0000
  H   H109      1.0  0.72303  0.60703  0.16485  1.0000
  C   C174      1.0  0.71599  0.62662  0.29326  1.0000
  H   H110      1.0  0.72426  0.63227  0.26081  1.0000
  C   C175      1.0  0.44557  0.72892  0.25815  1.0000
  C   C176      1.0  0.46114  0.73272  0.27386  1.0000
  H   H111      1.0  0.46767  0.73693  0.22235  1.0000
  C   C177      1.0  0.42057  0.72101  0.31930  1.0000
  C   C178      1.0  0.38859  0.71668  0.30034  1.0000
  C   C179      1.0  0.39761  0.72094  0.22584  1.0000
  C   C180      1.0  0.41369  0.72308  0.23417  1.0000
  C   C181      1.0  0.42293  0.72765  0.16134  1.0000
  C   C182      1.0  0.43875  0.73052  0.17320  1.0000
  H   H112      1.0  0.41815  0.72924  0.09966  1.0000
  H   H113      1.0  0.44515  0.73417  0.11992  1.0000
  H   H114      1.0  0.39241  0.72273  0.16540  1.0000
  C   C183      1.0  0.37275  0.71571  0.29346  1.0000
  H   H115      1.0  0.36713  0.72404  0.26132  1.0000
  C   C184      1.0  0.55417  0.26991  0.25701  1.0000
  C   C185      1.0  0.53862  0.26596  0.27259  1.0000
  H   H116      1.0  0.53214  0.26170  0.22099  1.0000
  C   C186      1.0  0.57908  0.27802  0.31842  1.0000
  C   C187      1.0  0.61103  0.28263  0.29973  1.0000
  C   C188      1.0  0.60205  0.27833  0.22511  1.0000
  C   C189      1.0  0.58599  0.27605  0.23331  1.0000
  C   C190      1.0  0.57681  0.27143  0.16036  1.0000
  C   C191      1.0  0.56101  0.26841  0.17207  1.0000
  H   H117      1.0  0.58161  0.26988  0.09870  1.0000
  H   H118      1.0  0.55466  0.26471  0.11873  1.0000
  H   H119      1.0  0.60728  0.27659  0.16470  1.0000
  C   C192      1.0  0.62687  0.28369  0.29300  1.0000
  H   H120      1.0  0.63252  0.27542  0.26059  1.0000
  C   C193      1.0  0.22434  0.24965  0.25350  1.0000
  C   C194      1.0  0.21337  0.23790  0.26788  1.0000
  H   H121      1.0  0.21020  0.23096  0.21568  1.0000
  C   C195      1.0  0.24071  0.26998  0.31647  1.0000
  C   C196      1.0  0.26501  0.29129  0.29948  1.0000
  C   C197      1.0  0.25995  0.28284  0.22444  1.0000
  C   C198      1.0  0.24770  0.27217  0.23175  1.0000
  C   C199      1.0  0.24265  0.26335  0.15828  1.0000
  C   C200      1.0  0.23103  0.25221  0.16901  1.0000
  H   H122      1.0  0.24760  0.26475  0.09689  1.0000
  H   H123      1.0  0.22778  0.24572  0.11522  1.0000
  H   H124      1.0  0.26541  0.28422  0.16442  1.0000
  C   C201      1.0  0.27795  0.30051  0.29402  1.0000
  H   H125      1.0  0.28732  0.29621  0.26484  1.0000
  C   C202      1.0  0.77532  0.74963  0.25333  1.0000
  C   C203      1.0  0.78627  0.76141  0.26752  1.0000
  H   H126      1.0  0.78939  0.76836  0.21525  1.0000
  C   C204      1.0  0.75906  0.72925  0.31656  1.0000
  C   C205      1.0  0.73480  0.70787  0.29997  1.0000
  C   C206      1.0  0.73980  0.71634  0.22486  1.0000
  C   C207      1.0  0.75202  0.72704  0.23197  1.0000
  C   C208      1.0  0.75700  0.73587  0.15842  1.0000
  C   C209      1.0  0.76860  0.74705  0.16895  1.0000
  H   H127      1.0  0.75202  0.73448  0.09713  1.0000
  H   H128      1.0  0.77179  0.75357  0.11513  1.0000
  H   H129      1.0  0.73430  0.71495  0.16494  1.0000
  C   C210      1.0  0.72188  0.69862  0.29471  1.0000
  H   H130      1.0  0.71248  0.70291  0.26576  1.0000
  C   C211      1.0  0.74973  0.22417  0.25324  1.0000
  C   C212      1.0  0.76149  0.21320  0.26737  1.0000
  H   H131      1.0  0.76844  0.21008  0.21510  1.0000
  C   C213      1.0  0.72940  0.24049  0.31657  1.0000
  C   C214      1.0  0.70808  0.26481  0.30008  1.0000
  C   C215      1.0  0.71652  0.25978  0.22492  1.0000
  C   C216      1.0  0.72719  0.24753  0.23199  1.0000
  C   C217      1.0  0.73600  0.24252  0.15839  1.0000
  C   C218      1.0  0.74716  0.23090  0.16888  1.0000
  H   H132      1.0  0.73461  0.24751  0.09711  1.0000
  H   H133      1.0  0.75365  0.22770  0.11502  1.0000
  H   H134      1.0  0.71514  0.26528  0.16501  1.0000
  C   C219      1.0  0.69886  0.27775  0.29486  1.0000
  H   H135      1.0  0.70318  0.28715  0.26599  1.0000
  C   C220      1.0  0.24973  0.77513  0.25348  1.0000
  C   C221      1.0  0.23796  0.78608  0.26794  1.0000
  H   H136      1.0  0.23100  0.78923  0.21580  1.0000
  C   C222      1.0  0.27013  0.75883  0.31629  1.0000
  C   C223      1.0  0.29149  0.73458  0.29920  1.0000
  C   C224      1.0  0.28301  0.73962  0.22421  1.0000
  C   C225      1.0  0.27232  0.75184  0.23157  1.0000
  C   C226      1.0  0.26346  0.75686  0.15817  1.0000
  C   C227      1.0  0.25228  0.76845  0.16899  1.0000
  H   H137      1.0  0.26485  0.75191  0.09679  1.0000
  H   H138      1.0  0.24577  0.77167  0.11525  1.0000
  H   H139      1.0  0.28439  0.73415  0.16421  1.0000
  C   C228      1.0  0.30074  0.72166  0.29374  1.0000
  H   H140      1.0  0.29646  0.71228  0.26456  1.0000
  C   C229      1.0  0.48748  0.01072  0.25757  1.0000
  C   C230      1.0  0.47861  0.02427  0.26551  1.0000
  H   H141      1.0  0.47250  0.02815  0.21144  1.0000
  C   C231      1.0  0.50487  0.99205  0.32781  1.0000
  C   C232      1.0  0.52289  0.96516  0.32005  1.0000
  C   C233      1.0  0.51442  0.96993  0.24448  1.0000
  C   C234      1.0  0.50540  0.98348  0.24715  1.0000
  C   C235      1.0  0.49701  0.98867  0.17234  1.0000
  C   C236      1.0  0.48814  0.00221  0.17745  1.0000
  H   H142      1.0  0.49729  0.98266  0.11369  1.0000
  H   H143      1.0  0.48213  0.00576  0.12245  1.0000
  H   H144      1.0  0.51498  0.96363  0.18678  1.0000
  C   C237      1.0  0.53186  0.95207  0.31662  1.0000
  H   H145      1.0  0.52732  0.94240  0.29245  1.0000
  C   C238      1.0  0.98879  0.48740  0.25763  1.0000
  C   C239      1.0  0.97523  0.47853  0.26557  1.0000
  H   H146      1.0  0.97136  0.47242  0.21150  1.0000
  C   C240      1.0  0.00746  0.50480  0.32788  1.0000
  C   C241      1.0  0.03435  0.52281  0.32014  1.0000
  C   C242      1.0  0.02957  0.51435  0.24456  1.0000
  C   C243      1.0  0.01603  0.50533  0.24721  1.0000
  C   C244      1.0  0.01083  0.49694  0.17240  1.0000
  C   C245      1.0  0.99730  0.48806  0.17751  1.0000
  H   H147      1.0  0.01685  0.49722  0.11374  1.0000
  H   H148      1.0  0.99375  0.48206  0.12251  1.0000
  H   H149      1.0  0.03587  0.51491  0.18685  1.0000
  C   C246      1.0  0.04743  0.53179  0.31672  1.0000
  H   H150      1.0  0.05711  0.52724  0.29255  1.0000
  N   N25       1.0  0.22897  0.02122  0.32417  1.0000
  C   C247      1.0  0.23472  0.03579  0.32470  1.0000
  N   N26       1.0  0.25024  0.03782  0.32223  1.0000
  C   C248      1.0  0.26009  0.02567  0.32044  1.0000
  N   N27       1.0  0.25414  0.01124  0.32205  1.0000
  N   N28       1.0  0.23284  0.99477  0.32631  1.0000
  N   N29       1.0  0.27520  0.02754  0.32290  1.0000
  N   N30       1.0  0.22542  0.04788  0.32378  1.0000
  N   N31       1.0  0.77056  0.97807  0.32334  1.0000
  C   C249      1.0  0.76500  0.96343  0.32489  1.0000
  N   N32       1.0  0.74950  0.96119  0.32256  1.0000
  C   C250      1.0  0.73948  0.97321  0.32013  1.0000
  N   N33       1.0  0.74527  0.98771  0.32020  1.0000
  N   N34       1.0  0.76638  0.00447  0.32410  1.0000
  N   N35       1.0  0.72436  0.97132  0.32140  1.0000
  N   N36       1.0  0.77444  0.95144  0.32415  1.0000
  N   N37       1.0  0.97820  0.22883  0.32438  1.0000
  C   C251      1.0  0.96362  0.23457  0.32487  1.0000
  N   N38       1.0  0.96159  0.25010  0.32243  1.0000
  C   C252      1.0  0.97375  0.25994  0.32070  1.0000
  N   N39       1.0  0.98818  0.25400  0.32230  1.0000
  N   N40       1.0  0.00465  0.23270  0.32660  1.0000
  N   N41       1.0  0.97189  0.27506  0.32311  1.0000
  N   N42       1.0  0.95153  0.22527  0.32398  1.0000
  N   N43       1.0  0.02134  0.77043  0.32310  1.0000
  C   C253      1.0  0.03599  0.76489  0.32484  1.0000
  N   N44       1.0  0.03826  0.74940  0.32230  1.0000
  C   C254      1.0  0.02626  0.73937  0.31949  1.0000
  N   N45       1.0  0.01175  0.74513  0.31933  1.0000
  N   N46       1.0  0.99496  0.76621  0.32334  1.0000
  N   N47       1.0  0.02817  0.72424  0.32049  1.0000
  N   N48       1.0  0.04796  0.77435  0.32446  1.0000
  C   C255      1.0  0.26137  0.50783  0.33997  1.0000
  N   N49       1.0  0.27112  0.52011  0.33906  1.0000
  C   C256      1.0  0.26549  0.53472  0.33774  1.0000
  N   N50       1.0  0.24998  0.53686  0.33860  1.0000
  C   C257      1.0  0.24002  0.52480  0.33936  1.0000
  N   N51       1.0  0.24586  0.51031  0.33862  1.0000
  N   N52       1.0  0.26706  0.49370  0.33704  1.0000
  N   N53       1.0  0.22493  0.52687  0.33604  1.0000
  N   N54       1.0  0.27484  0.54677  0.34000  1.0000
  C   C258      1.0  0.73896  0.49130  0.34000  1.0000
  N   N55       1.0  0.72920  0.47904  0.33835  1.0000
  C   C259      1.0  0.73479  0.46441  0.33770  1.0000
  N   N56       1.0  0.75030  0.46223  0.34016  1.0000
  C   C260      1.0  0.76027  0.47428  0.34173  1.0000
  N   N57       1.0  0.75447  0.48877  0.34026  1.0000
  N   N58       1.0  0.73330  0.50544  0.33670  1.0000
  N   N59       1.0  0.77537  0.47222  0.34029  1.0000
  N   N60       1.0  0.72542  0.45238  0.33954  1.0000
  C   C261      1.0  0.50812  0.73806  0.33989  1.0000
  N   N61       1.0  0.52040  0.72832  0.33886  1.0000
  C   C262      1.0  0.53502  0.73396  0.33744  1.0000
  N   N62       1.0  0.53714  0.74948  0.33833  1.0000
  C   C263      1.0  0.52507  0.75942  0.33923  1.0000
  N   N63       1.0  0.51059  0.75357  0.33859  1.0000
  N   N64       1.0  0.49399  0.73236  0.33716  1.0000
  N   N65       1.0  0.52712  0.77451  0.33602  1.0000
  N   N66       1.0  0.54707  0.72461  0.33961  1.0000
  C   C264      1.0  0.49159  0.26050  0.34020  1.0000
  N   N67       1.0  0.47933  0.27026  0.33844  1.0000
  C   C265      1.0  0.46470  0.26466  0.33774  1.0000
  N   N68       1.0  0.46253  0.24916  0.34028  1.0000
  C   C266      1.0  0.47458  0.23919  0.34199  1.0000
  N   N69       1.0  0.48907  0.24499  0.34058  1.0000
  N   N70       1.0  0.50573  0.26617  0.33697  1.0000
  N   N71       1.0  0.47251  0.22409  0.34063  1.0000
  N   N72       1.0  0.45268  0.27405  0.33946  1.0000
  C   C267      1.0  0.14830  0.20199  0.34736  1.0000
  N   N73       1.0  0.15329  0.18718  0.34253  1.0000
  C   C268      1.0  0.16856  0.18389  0.33853  1.0000
  N   N74       1.0  0.17886  0.19569  0.33994  1.0000
  C   C269      1.0  0.17416  0.21062  0.34490  1.0000
  N   N75       1.0  0.15883  0.21364  0.34730  1.0000
  N   N76       1.0  0.13328  0.20451  0.34749  1.0000
  N   N77       1.0  0.18402  0.22225  0.34221  1.0000
  N   N78       1.0  0.17297  0.16931  0.33516  1.0000
  C   C270      1.0  0.85146  0.79720  0.34753  1.0000
  N   N79       1.0  0.84652  0.81203  0.34275  1.0000
  C   C271      1.0  0.83126  0.81537  0.33888  1.0000
  N   N80       1.0  0.82092  0.80360  0.34030  1.0000
  C   C272      1.0  0.82557  0.78866  0.34515  1.0000
  N   N81       1.0  0.84090  0.78559  0.34747  1.0000
  N   N82       1.0  0.86647  0.79462  0.34741  1.0000
  N   N83       1.0  0.81569  0.77704  0.34247  1.0000
  N   N84       1.0  0.82690  0.82997  0.33556  1.0000
  C   C273      1.0  0.79738  0.14805  0.34693  1.0000
  N   N85       1.0  0.81220  0.15302  0.34217  1.0000
  C   C274      1.0  0.81551  0.16830  0.33832  1.0000
  N   N86       1.0  0.80372  0.17861  0.33973  1.0000
  C   C275      1.0  0.78878  0.17393  0.34452  1.0000
  N   N87       1.0  0.78574  0.15860  0.34684  1.0000
  N   N88       1.0  0.79482  0.13304  0.34685  1.0000
  N   N89       1.0  0.77715  0.18380  0.34193  1.0000
  N   N90       1.0  0.83010  0.17270  0.33504  1.0000
  C   C276      1.0  0.20216  0.85119  0.34789  1.0000
  N   N91       1.0  0.18734  0.84623  0.34297  1.0000
  C   C277      1.0  0.18402  0.83097  0.33891  1.0000
  N   N92       1.0  0.19580  0.82064  0.34032  1.0000
  C   C278      1.0  0.21074  0.82531  0.34529  1.0000
  N   N93       1.0  0.21379  0.84064  0.34779  1.0000
  N   N94       1.0  0.20469  0.86620  0.34796  1.0000
  N   N95       1.0  0.22236  0.81544  0.34272  1.0000
  N   N96       1.0  0.16943  0.82660  0.33555  1.0000
  N   N97       1.0  0.34547  0.68677  0.33255  1.0000
  C   C279      1.0  0.33022  0.68339  0.33576  1.0000
  N   N98       1.0  0.31983  0.69511  0.33201  1.0000
  C   C280      1.0  0.32447  0.71004  0.32612  1.0000
  N   N99       1.0  0.33979  0.71316  0.32454  1.0000
  N   N100      1.0  0.36539  0.70419  0.32630  1.0000
  N   N101      1.0  0.31455  0.72163  0.32477  1.0000
  N   N102      1.0  0.32592  0.66878  0.33892  1.0000
  N   N103      1.0  0.65409  0.31265  0.33272  1.0000
  C   C281      1.0  0.66935  0.31603  0.33606  1.0000
  N   N104      1.0  0.67974  0.30431  0.33251  1.0000
  C   C282      1.0  0.67511  0.28937  0.32675  1.0000
  N   N105      1.0  0.65979  0.28625  0.32501  1.0000
  N   N106      1.0  0.63419  0.29520  0.32638  1.0000
  N   N107      1.0  0.68502  0.27778  0.32545  1.0000
  N   N108      1.0  0.67366  0.33064  0.33908  1.0000
  N   N109      1.0  0.68702  0.65383  0.33304  1.0000
  C   C283      1.0  0.68363  0.66909  0.33632  1.0000
  N   N110      1.0  0.69534  0.67949  0.33270  1.0000
  C   C284      1.0  0.71029  0.67487  0.32688  1.0000
  N   N111      1.0  0.71342  0.65955  0.32518  1.0000
  N   N112      1.0  0.70448  0.63394  0.32663  1.0000
  N   N113      1.0  0.72187  0.68479  0.32551  1.0000
  N   N114      1.0  0.66902  0.67338  0.33942  1.0000
  N   N115      1.0  0.31292  0.34520  0.33251  1.0000
  C   C285      1.0  0.31627  0.32993  0.33567  1.0000
  N   N116      1.0  0.30454  0.31956  0.33203  1.0000
  C   C286      1.0  0.28961  0.32422  0.32629  1.0000
  N   N117      1.0  0.28652  0.33955  0.32472  1.0000
  N   N118      1.0  0.29552  0.36514  0.32636  1.0000
  N   N119      1.0  0.27801  0.31433  0.32499  1.0000
  N   N120      1.0  0.33088  0.32560  0.33872  1.0000
  N   N121      1.0  0.42904  0.05165  0.34204  1.0000
  C   C287      1.0  0.41767  0.06239  0.34260  1.0000
  N   N122      1.0  0.42158  0.07756  0.34162  1.0000
  C   C288      1.0  0.43658  0.08208  0.34132  1.0000
  N   N123      1.0  0.44775  0.07116  0.34271  1.0000
  N   N124      1.0  0.45459  0.04488  0.34181  1.0000
  N   N125      1.0  0.44070  0.09673  0.34029  1.0000
  N   N126      1.0  0.40314  0.05778  0.34179  1.0000
  N   N127      1.0  0.57182  0.94634  0.33800  1.0000
  C   C289      1.0  0.58338  0.93577  0.33416  1.0000
  N   N128      1.0  0.57974  0.92062  0.32670  1.0000
  C   C290      1.0  0.56478  0.91594  0.32382  1.0000
  N   N129      1.0  0.55343  0.92665  0.32871  1.0000
  N   N130      1.0  0.54621  0.95280  0.33728  1.0000
  N   N131      1.0  0.56074  0.90128  0.32121  1.0000
  N   N132      1.0  0.59812  0.93958  0.33570  1.0000
  N   N133      1.0  0.94787  0.42894  0.34201  1.0000
  C   C291      1.0  0.93713  0.41757  0.34250  1.0000
  N   N134      1.0  0.92195  0.42148  0.34151  1.0000
  C   C292      1.0  0.91744  0.43649  0.34127  1.0000
  N   N135      1.0  0.92836  0.44766  0.34272  1.0000
  N   N136      1.0  0.95464  0.45449  0.34185  1.0000
  N   N137      1.0  0.90278  0.44061  0.34022  1.0000
  N   N138      1.0  0.94173  0.40305  0.34167  1.0000
  N   N139      1.0  0.05315  0.57174  0.33800  1.0000
  C   C293      1.0  0.06371  0.58331  0.33411  1.0000
  N   N140      1.0  0.07887  0.57967  0.32672  1.0000
  C   C294      1.0  0.08356  0.56472  0.32398  1.0000
  N   N141      1.0  0.07285  0.55337  0.32888  1.0000
  N   N142      1.0  0.04670  0.54614  0.33738  1.0000
  N   N143      1.0  0.09821  0.56068  0.32134  1.0000
  N   N144      1.0  0.05989  0.59804  0.33550  1.0000
  C   C295      1.0  0.31987  0.04594  0.40823  1.0000
  C   C296      1.0  0.30413  0.04290  0.39244  1.0000
  H   H151      1.0  0.29649  0.04356  0.44444  1.0000
  C   C297      1.0  0.34584  0.04952  0.34713  1.0000
  C   C298      1.0  0.37673  0.05877  0.36736  1.0000
  C   C299      1.0  0.36679  0.05846  0.44199  1.0000
  C   C300      1.0  0.35129  0.05376  0.43304  1.0000
  C   C301      1.0  0.34103  0.05366  0.50611  1.0000
  C   C302      1.0  0.32545  0.04974  0.49384  1.0000
  H   H152      1.0  0.34475  0.05674  0.56834  1.0000
  H   H153      1.0  0.31815  0.05007  0.54741  1.0000
  H   H154      1.0  0.37079  0.06197  0.50299  1.0000
  C   C303      1.0  0.39139  0.06478  0.37484  1.0000
  H   H155      1.0  0.39272  0.07470  0.40745  1.0000
  C   C304      1.0  0.67804  0.95653  0.41305  1.0000
  C   C305      1.0  0.69417  0.95736  0.40217  1.0000
  H   H156      1.0  0.70116  0.95651  0.45711  1.0000
  C   C306      1.0  0.65243  0.95627  0.34392  1.0000
  C   C307      1.0  0.62025  0.95362  0.35659  1.0000
  C   C308      1.0  0.62934  0.95317  0.43461  1.0000
  C   C309      1.0  0.64555  0.95439  0.42924  1.0000
  C   C310      1.0  0.65502  0.95366  0.50565  1.0000
  C   C311      1.0  0.67114  0.95469  0.49760  1.0000
  H   H157      1.0  0.65027  0.95226  0.56757  1.0000
  H   H158      1.0  0.67779  0.95401  0.55384  1.0000
  H   H159      1.0  0.62415  0.95174  0.49545  1.0000
  C   C312      1.0  0.60449  0.95220  0.36101  1.0000
  H   H160      1.0  0.59833  0.96089  0.38557  1.0000
  C   C313      1.0  0.95354  0.31977  0.40834  1.0000
  C   C314      1.0  0.95657  0.30403  0.39262  1.0000
  H   H161      1.0  0.95589  0.29639  0.44465  1.0000
  C   C315      1.0  0.94999  0.34574  0.34711  1.0000
  C   C316      1.0  0.94075  0.37663  0.36720  1.0000
  C   C317      1.0  0.94106  0.36671  0.44189  1.0000
  C   C318      1.0  0.94576  0.35119  0.43300  1.0000
  C   C319      1.0  0.94585  0.34096  0.50612  1.0000
  C   C320      1.0  0.94975  0.32537  0.49393  1.0000
  H   H162      1.0  0.94277  0.34468  0.56834  1.0000
  H   H163      1.0  0.94942  0.31807  0.54751  1.0000
  H   H164      1.0  0.93754  0.37071  0.50286  1.0000
  C   C321      1.0  0.93473  0.39130  0.37461  1.0000
  H   H165      1.0  0.92481  0.39262  0.40717  1.0000
  C   C322      1.0  0.04308  0.67797  0.41289  1.0000
  C   C323      1.0  0.04225  0.69410  0.40197  1.0000
  H   H166      1.0  0.04315  0.70110  0.45687  1.0000
  C   C324      1.0  0.04325  0.65235  0.34383  1.0000
  C   C325      1.0  0.04587  0.62017  0.35653  1.0000
  C   C326      1.0  0.04638  0.62927  0.43453  1.0000
  C   C327      1.0  0.04518  0.64548  0.42913  1.0000
  C   C328      1.0  0.04598  0.65496  0.50549  1.0000
  C   C329      1.0  0.04497  0.67108  0.49741  1.0000
  H   H167      1.0  0.04742  0.65021  0.56740  1.0000
  H   H168      1.0  0.04570  0.67773  0.55361  1.0000
  H   H169      1.0  0.04786  0.62409  0.49534  1.0000
  C   C330      1.0  0.04728  0.60442  0.36095  1.0000
  H   H170      1.0  0.03862  0.59826  0.38595  1.0000
  C   C331      1.0  0.20165  0.53962  0.35354  1.0000
  C   C332      1.0  0.19085  0.53936  0.42471  1.0000
  N   N145      1.0  0.17593  0.54306  0.40714  1.0000
  C   C333      1.0  0.17047  0.54701  0.32546  1.0000
  C   C334      1.0  0.13035  0.55676  0.37850  1.0000
  N   N146      1.0  0.14516  0.55189  0.38460  1.0000
  H   H171      1.0  0.12377  0.55691  0.43505  1.0000
  C   C335      1.0  0.19446  0.53565  0.51879  1.0000
  H   H172      1.0  0.20650  0.53247  0.52884  1.0000
  H   H173      1.0  0.18733  0.52599  0.54056  1.0000
  H   H174      1.0  0.19193  0.54561  0.56066  1.0000
  C   C336      1.0  0.21729  0.53836  0.36716  1.0000
  H   H175      1.0  0.22259  0.54694  0.39895  1.0000
  C   C337      1.0  0.79862  0.45958  0.36035  1.0000
  C   C338      1.0  0.80915  0.46011  0.43285  1.0000
  N   N147      1.0  0.82421  0.45677  0.41715  1.0000
  C   C339      1.0  0.83006  0.45292  0.33620  1.0000
  C   C340      1.0  0.87026  0.44424  0.39386  1.0000
  N   N148      1.0  0.85531  0.44871  0.39828  1.0000
  H   H176      1.0  0.87665  0.44422  0.45111  1.0000
  C   C341      1.0  0.80511  0.46379  0.52640  1.0000
  H   H177      1.0  0.79296  0.46666  0.53496  1.0000
  H   H178      1.0  0.81191  0.47363  0.54881  1.0000
  H   H179      1.0  0.80774  0.45391  0.56876  1.0000
  C   C342      1.0  0.78292  0.46070  0.37180  1.0000
  H   H180      1.0  0.77755  0.45206  0.40254  1.0000
  C   C343      1.0  0.53984  0.79781  0.35370  1.0000
  C   C344      1.0  0.53953  0.80861  0.42482  1.0000
  N   N149      1.0  0.54319  0.82354  0.40717  1.0000
  C   C345      1.0  0.54716  0.82899  0.32548  1.0000
  C   C346      1.0  0.55681  0.86914  0.37836  1.0000
  N   N150      1.0  0.55198  0.85433  0.38451  1.0000
  H   H181      1.0  0.55696  0.87573  0.43488  1.0000
  C   C347      1.0  0.53580  0.80501  0.51888  1.0000
  H   H182      1.0  0.53265  0.79297  0.52899  1.0000
  H   H183      1.0  0.52611  0.81213  0.54051  1.0000
  H   H184      1.0  0.54575  0.80758  0.56084  1.0000
  C   C348      1.0  0.53858  0.78216  0.36740  1.0000
  H   H185      1.0  0.54716  0.77687  0.39916  1.0000
  C   C349      1.0  0.45985  0.20085  0.36041  1.0000
  C   C350      1.0  0.46034  0.19033  0.43293  1.0000
  N   N151      1.0  0.45696  0.17527  0.41726  1.0000
  C   C351      1.0  0.45310  0.16943  0.33632  1.0000
  C   C352      1.0  0.44434  0.12925  0.39404  1.0000
  N   N152      1.0  0.44885  0.14419  0.39843  1.0000
  H   H186      1.0  0.44433  0.12286  0.45128  1.0000
  C   C353      1.0  0.46401  0.19437  0.52648  1.0000
  H   H187      1.0  0.46691  0.20651  0.53501  1.0000
  H   H188      1.0  0.47383  0.18754  0.54897  1.0000
  H   H189      1.0  0.45411  0.19176  0.56880  1.0000
  C   C354      1.0  0.46096  0.21655  0.37182  1.0000
  H   H190      1.0  0.45229  0.22193  0.40217  1.0000
  C   C355      1.0  0.21819  0.07326  0.35326  1.0000
  C   C356      1.0  0.21118  0.08133  0.42506  1.0000
  N   N153      1.0  0.20479  0.09537  0.40888  1.0000
  C   C357      1.0  0.20455  0.10238  0.32798  1.0000
  C   C358      1.0  0.18784  0.13999  0.38519  1.0000
  N   N154      1.0  0.19289  0.12522  0.38956  1.0000
  H   H191      1.0  0.18403  0.14515  0.44239  1.0000
  C   C359      1.0  0.21056  0.07597  0.51873  1.0000
  H   H192      1.0  0.21543  0.06448  0.52763  1.0000
  H   H193      1.0  0.19858  0.07562  0.54087  1.0000
  H   H194      1.0  0.21692  0.08398  0.56108  1.0000
  C   C360      1.0  0.22751  0.06057  0.36651  1.0000
  H   H195      1.0  0.23670  0.06193  0.40552  1.0000
  C   C361      1.0  0.78192  0.92614  0.35395  1.0000
  C   C362      1.0  0.78893  0.91806  0.42570  1.0000
  N   N155      1.0  0.79531  0.90402  0.40947  1.0000
  C   C363      1.0  0.79555  0.89702  0.32855  1.0000
  C   C364      1.0  0.81216  0.85935  0.38571  1.0000
  N   N156      1.0  0.80715  0.87414  0.39008  1.0000
  H   H196      1.0  0.81594  0.85418  0.44292  1.0000
  C   C365      1.0  0.78956  0.92342  0.51937  1.0000
  H   H197      1.0  0.78470  0.93491  0.52826  1.0000
  H   H198      1.0  0.80154  0.92375  0.54154  1.0000
  H   H199      1.0  0.78319  0.91542  0.56170  1.0000
  C   C366      1.0  0.77251  0.93876  0.36726  1.0000
  H   H200      1.0  0.76335  0.93734  0.40654  1.0000
  C   C367      1.0  0.92614  0.21804  0.35322  1.0000
  C   C368      1.0  0.91809  0.21101  0.42502  1.0000
  N   N157      1.0  0.90406  0.20460  0.40887  1.0000
  C   C369      1.0  0.89703  0.20435  0.32801  1.0000
  C   C370      1.0  0.85945  0.18756  0.38524  1.0000
  N   N158      1.0  0.87421  0.19264  0.38958  1.0000
  H   H201      1.0  0.85430  0.18375  0.44245  1.0000
  C   C371      1.0  0.92346  0.21038  0.51866  1.0000
  H   H202      1.0  0.93494  0.21527  0.52755  1.0000
  H   H203      1.0  0.92383  0.19840  0.54075  1.0000
  H   H204      1.0  0.91544  0.21672  0.56107  1.0000
  C   C372      1.0  0.93882  0.22737  0.36649  1.0000
  H   H205      1.0  0.93742  0.23660  0.40521  1.0000
  C   C373      1.0  0.07323  0.78181  0.35471  1.0000
  C   C374      1.0  0.08134  0.78883  0.42634  1.0000
  N   N159      1.0  0.09538  0.79518  0.40994  1.0000
  C   C375      1.0  0.10237  0.79537  0.32897  1.0000
  C   C376      1.0  0.14008  0.81191  0.38576  1.0000
  N   N160      1.0  0.12528  0.80693  0.39026  1.0000
  H   H206      1.0  0.14527  0.81568  0.44292  1.0000
  C   C377      1.0  0.07600  0.78952  0.52004  1.0000
  H   H207      1.0  0.06450  0.78469  0.52910  1.0000
  H   H208      1.0  0.07570  0.80151  0.54203  1.0000
  H   H209      1.0  0.08400  0.78314  0.56241  1.0000
  C   C378      1.0  0.06056  0.77247  0.36833  1.0000
  H   H210      1.0  0.06197  0.76332  0.40761  1.0000
  C   C379      1.0  0.28869  0.59355  0.41380  1.0000
  C   C380      1.0  0.28218  0.57888  0.39876  1.0000
  H   H211      1.0  0.27666  0.57340  0.45025  1.0000
  C   C381      1.0  0.30093  0.61664  0.35144  1.0000
  C   C382      1.0  0.31036  0.64754  0.36779  1.0000
  C   C383      1.0  0.30453  0.63957  0.44272  1.0000
  C   C384      1.0  0.29982  0.62403  0.43570  1.0000
  C   C385      1.0  0.29357  0.61593  0.50884  1.0000
  C   C386      1.0  0.28807  0.60079  0.49802  1.0000
  H   H212      1.0  0.29258  0.62111  0.56984  1.0000
  H   H213      1.0  0.28317  0.59530  0.55134  1.0000
  H   H214      1.0  0.30338  0.64522  0.50236  1.0000
  C   C387      1.0  0.31354  0.66312  0.37271  1.0000
  H   H215      1.0  0.30593  0.66995  0.40294  1.0000
  C   C388      1.0  0.71132  0.40571  0.41360  1.0000
  C   C389      1.0  0.71793  0.42034  0.39853  1.0000
  H   H216      1.0  0.72347  0.42580  0.45006  1.0000
  C   C390      1.0  0.69894  0.38269  0.35130  1.0000
  C   C391      1.0  0.68925  0.35186  0.36802  1.0000
  C   C392      1.0  0.69510  0.35983  0.44291  1.0000
  C   C393      1.0  0.69993  0.37533  0.43574  1.0000
  C   C394      1.0  0.70621  0.38342  0.50887  1.0000
  C   C395      1.0  0.71183  0.39851  0.49793  1.0000
  H   H217      1.0  0.70709  0.37827  0.57001  1.0000
  H   H218      1.0  0.71670  0.40400  0.55133  1.0000
  H   H219      1.0  0.69618  0.35420  0.50266  1.0000
  C   C396      1.0  0.68602  0.33630  0.37308  1.0000
  H   H220      1.0  0.69359  0.32946  0.40358  1.0000
  C   C397      1.0  0.59382  0.71078  0.41362  1.0000
  C   C398      1.0  0.57916  0.71730  0.39849  1.0000
  H   H221      1.0  0.57369  0.72286  0.44988  1.0000
  C   C399      1.0  0.61689  0.69846  0.35150  1.0000
  C   C400      1.0  0.64777  0.68894  0.36815  1.0000
  C   C401      1.0  0.63980  0.69482  0.44296  1.0000
  C   C402      1.0  0.62427  0.69957  0.43580  1.0000
  C   C403      1.0  0.61617  0.70588  0.50881  1.0000
  C   C404      1.0  0.60105  0.71141  0.49785  1.0000
  H   H222      1.0  0.62134  0.70685  0.56987  1.0000
  H   H223      1.0  0.59555  0.71631  0.55115  1.0000
  H   H224      1.0  0.64544  0.69598  0.50261  1.0000
  C   C405      1.0  0.66334  0.68576  0.37315  1.0000
  H   H225      1.0  0.67017  0.69337  0.40337  1.0000
  C   C406      1.0  0.40598  0.28808  0.41343  1.0000
  C   C407      1.0  0.42063  0.28150  0.39842  1.0000
  H   H226      1.0  0.42608  0.27597  0.44996  1.0000
  C   C408      1.0  0.38293  0.30039  0.35105  1.0000
  C   C409      1.0  0.35208  0.31000  0.36761  1.0000
  C   C410      1.0  0.36005  0.30418  0.44258  1.0000
  C   C411      1.0  0.37556  0.29938  0.43545  1.0000
  C   C412      1.0  0.38366  0.29313  0.50862  1.0000
  C   C413      1.0  0.39877  0.28756  0.49775  1.0000
  H   H227      1.0  0.37850  0.29223  0.56974  1.0000
  H   H228      1.0  0.40426  0.28268  0.55114  1.0000
  H   H229      1.0  0.35442  0.30309  0.50230  1.0000
  C   C414      1.0  0.33652  0.31322  0.37267  1.0000
  H   H230      1.0  0.32967  0.30566  0.40309  1.0000
  C   C415      1.0  0.22928  0.94656  0.40910  1.0000
  C   C416      1.0  0.23306  0.96209  0.39206  1.0000
  H   H231      1.0  0.23730  0.96875  0.44297  1.0000
  C   C417      1.0  0.22140  0.92140  0.35004  1.0000
  C   C418      1.0  0.21717  0.88946  0.37149  1.0000
  C   C419      1.0  0.22143  0.89866  0.44526  1.0000
  C   C420      1.0  0.22351  0.91473  0.43567  1.0000
  C   C421      1.0  0.22807  0.92415  0.50772  1.0000
  C   C422      1.0  0.23091  0.93995  0.49457  1.0000
  H   H232      1.0  0.22971  0.91952  0.56976  1.0000
  H   H233      1.0  0.23457  0.94648  0.54730  1.0000
  H   H234      1.0  0.22326  0.89360  0.50605  1.0000
  C   C423      1.0  0.21629  0.87363  0.37942  1.0000
  H   H235      1.0  0.22476  0.86809  0.41067  1.0000
  C   C424      1.0  0.76976  0.05276  0.40828  1.0000
  C   C425      1.0  0.76589  0.03723  0.39142  1.0000
  H   H236      1.0  0.76168  0.03060  0.44252  1.0000
  C   C426      1.0  0.77777  0.07786  0.34898  1.0000
  C   C427      1.0  0.78226  0.10978  0.37038  1.0000
  C   C428      1.0  0.77795  0.10061  0.44417  1.0000
  C   C429      1.0  0.77575  0.08456  0.43463  1.0000
  C   C430      1.0  0.77114  0.07518  0.50677  1.0000
  C   C431      1.0  0.76821  0.05939  0.49375  1.0000
  H   H237      1.0  0.76957  0.07982  0.56880  1.0000
  H   H238      1.0  0.76452  0.05289  0.54655  1.0000
  H   H239      1.0  0.77617  0.10569  0.50499  1.0000
  C   C432      1.0  0.78321  0.12561  0.37828  1.0000
  H   H240      1.0  0.77476  0.13118  0.40957  1.0000
  C   C433      1.0  0.05292  0.22911  0.40934  1.0000
  C   C434      1.0  0.03737  0.23290  0.39250  1.0000
  H   H241      1.0  0.03075  0.23716  0.44348  1.0000
  C   C435      1.0  0.07805  0.22122  0.34999  1.0000
  C   C436      1.0  0.11000  0.21698  0.37111  1.0000
  C   C437      1.0  0.10083  0.22124  0.44496  1.0000
  C   C438      1.0  0.08476  0.22333  0.43554  1.0000
  C   C439      1.0  0.07537  0.22790  0.50770  1.0000
  C   C440      1.0  0.05956  0.23074  0.49473  1.0000
  H   H242      1.0  0.08001  0.22954  0.56966  1.0000
  H   H243      1.0  0.05305  0.23441  0.54752  1.0000
  H   H244      1.0  0.10591  0.22308  0.50569  1.0000
  C   C441      1.0  0.12584  0.21610  0.37886  1.0000
  H   H245      1.0  0.13138  0.22459  0.40998  1.0000
  C   C442      1.0  0.94674  0.76956  0.40782  1.0000
  C   C443      1.0  0.96227  0.76571  0.39072  1.0000
  H   H246      1.0  0.96892  0.76149  0.44167  1.0000
  C   C444      1.0  0.92162  0.77758  0.34892  1.0000
  C   C445      1.0  0.88971  0.78204  0.37077  1.0000
  C   C446      1.0  0.89891  0.77775  0.44445  1.0000
  C   C447      1.0  0.91496  0.77555  0.43467  1.0000
  C   C448      1.0  0.92437  0.77095  0.50667  1.0000
  C   C449      1.0  0.94015  0.76801  0.49338  1.0000
  H   H247      1.0  0.91976  0.76938  0.56878  1.0000
  H   H248      1.0  0.94668  0.76434  0.54610  1.0000
  H   H249      1.0  0.89386  0.77596  0.50533  1.0000
  C   C450      1.0  0.87389  0.78301  0.37886  1.0000
  H   H250      1.0  0.86832  0.77457  0.41023  1.0000
  C   C451      1.0  0.26772  0.46723  0.36004  1.0000
  C   C452      1.0  0.27297  0.45769  0.43082  1.0000
  N   N161      1.0  0.27659  0.44277  0.41277  1.0000
  C   C453      1.0  0.27560  0.43617  0.33089  1.0000
  C   C454      1.0  0.28516  0.39592  0.38261  1.0000
  N   N162      1.0  0.28280  0.41133  0.38921  1.0000
  H   H251      1.0  0.28795  0.38992  0.43900  1.0000
  C   C455      1.0  0.27462  0.46251  0.52505  1.0000
  H   H252      1.0  0.27196  0.47466  0.53549  1.0000
  H   H253      1.0  0.28648  0.46055  0.54677  1.0000
  H   H254      1.0  0.26692  0.45566  0.56671  1.0000
  C   C456      1.0  0.26142  0.48161  0.37434  1.0000
  H   H255      1.0  0.25189  0.48226  0.41111  1.0000
  C   C457      1.0  0.73269  0.53194  0.35911  1.0000
  C   C458      1.0  0.72742  0.54144  0.43002  1.0000
  N   N163      1.0  0.72374  0.55636  0.41208  1.0000
  C   C459      1.0  0.72469  0.56297  0.33024  1.0000
  C   C460      1.0  0.71497  0.60317  0.38233  1.0000
  N   N164      1.0  0.71740  0.58777  0.38880  1.0000
  H   H256      1.0  0.71217  0.60914  0.43879  1.0000
  C   C461      1.0  0.72582  0.53661  0.52426  1.0000
  H   H257      1.0  0.72854  0.52447  0.53464  1.0000
  H   H258      1.0  0.71397  0.53851  0.54612  1.0000
  H   H259      1.0  0.73352  0.54349  0.56585  1.0000
  C   C462      1.0  0.73900  0.51756  0.37336  1.0000
  H   H260      1.0  0.74857  0.51694  0.40991  1.0000
  C   C463      1.0  0.46752  0.73174  0.36048  1.0000
  C   C464      1.0  0.45796  0.72650  0.43121  1.0000
  N   N165      1.0  0.44303  0.72294  0.41309  1.0000
  C   C465      1.0  0.43644  0.72398  0.33122  1.0000
  C   C466      1.0  0.39616  0.71452  0.38276  1.0000
  N   N166      1.0  0.41157  0.71684  0.38942  1.0000
  H   H261      1.0  0.39015  0.71172  0.43910  1.0000
  C   C467      1.0  0.46277  0.72480  0.52543  1.0000
  H   H262      1.0  0.47493  0.72742  0.53592  1.0000
  H   H263      1.0  0.46078  0.71295  0.54701  1.0000
  H   H264      1.0  0.45595  0.73252  0.56716  1.0000
  C   C468      1.0  0.48193  0.73798  0.37491  1.0000
  H   H265      1.0  0.48259  0.74751  0.41167  1.0000
  C   C469      1.0  0.53222  0.26683  0.35919  1.0000
  C   C470      1.0  0.54173  0.27211  0.43005  1.0000
  N   N167      1.0  0.55663  0.27583  0.41206  1.0000
  C   C471      1.0  0.56324  0.27490  0.33020  1.0000
  C   C472      1.0  0.60342  0.28470  0.38212  1.0000
  N   N168      1.0  0.58803  0.28225  0.38865  1.0000
  H   H266      1.0  0.60939  0.28752  0.43855  1.0000
  C   C473      1.0  0.53690  0.27370  0.52431  1.0000
  H   H267      1.0  0.52477  0.27096  0.53471  1.0000
  H   H268      1.0  0.53878  0.28556  0.54617  1.0000
  H   H269      1.0  0.54380  0.26602  0.56587  1.0000
  C   C474      1.0  0.51787  0.26047  0.37343  1.0000
  H   H270      1.0  0.51727  0.25088  0.40978  1.0000
  C   C475      1.0  0.20733  0.23511  0.35391  1.0000
  C   C476      1.0  0.21234  0.24457  0.42555  1.0000
  N   N169      1.0  0.22291  0.25579  0.40869  1.0000
  C   C477      1.0  0.22912  0.25869  0.32730  1.0000
  C   C478      1.0  0.25738  0.28883  0.38142  1.0000
  N   N170      1.0  0.24580  0.27836  0.38712  1.0000
  H   H271      1.0  0.26081  0.29438  0.43817  1.0000
  C   C479      1.0  0.20725  0.24313  0.51940  1.0000
  H   H272      1.0  0.19864  0.23412  0.52892  1.0000
  H   H273      1.0  0.20223  0.25403  0.54130  1.0000
  H   H274      1.0  0.21715  0.24050  0.56155  1.0000
  C   C480      1.0  0.19824  0.22226  0.36622  1.0000
  H   H275      1.0  0.20317  0.21285  0.39118  1.0000
  C   C481      1.0  0.79235  0.76421  0.35343  1.0000
  C   C482      1.0  0.78741  0.75473  0.42516  1.0000
  N   N171      1.0  0.77686  0.74349  0.40848  1.0000
  C   C483      1.0  0.77061  0.74057  0.32721  1.0000
  C   C484      1.0  0.74248  0.71034  0.38176  1.0000
  N   N172      1.0  0.75402  0.72084  0.38728  1.0000
  H   H276      1.0  0.73909  0.70478  0.43858  1.0000
  C   C485      1.0  0.79255  0.75619  0.51891  1.0000
  H   H277      1.0  0.80113  0.76524  0.52826  1.0000
  H   H278      1.0  0.79762  0.74531  0.54071  1.0000
  H   H279      1.0  0.78266  0.75879  0.56124  1.0000
  C   C486      1.0  0.80142  0.77708  0.36550  1.0000
  H   H280      1.0  0.79645  0.78654  0.38960  1.0000
  C   C487      1.0  0.76430  0.20713  0.35330  1.0000
  C   C488      1.0  0.75484  0.21209  0.42505  1.0000
  N   N173      1.0  0.74362  0.22265  0.40842  1.0000
  C   C489      1.0  0.74069  0.22891  0.32716  1.0000
  C   C490      1.0  0.71054  0.25712  0.38186  1.0000
  N   N174      1.0  0.72101  0.24555  0.38733  1.0000
  H   H281      1.0  0.70501  0.26053  0.43871  1.0000
  C   C491      1.0  0.75631  0.20696  0.51882  1.0000
  H   H282      1.0  0.76533  0.19836  0.52815  1.0000
  H   H283      1.0  0.74542  0.20191  0.54070  1.0000
  H   H284      1.0  0.75894  0.21685  0.56110  1.0000
  C   C492      1.0  0.77717  0.19805  0.36538  1.0000
  H   H285      1.0  0.78661  0.20300  0.38976  1.0000
  C   C493      1.0  0.23518  0.79212  0.35398  1.0000
  C   C494      1.0  0.24468  0.78714  0.42555  1.0000
  N   N175      1.0  0.25592  0.77660  0.40861  1.0000
  C   C495      1.0  0.25881  0.77039  0.32721  1.0000
  C   C496      1.0  0.28905  0.74223  0.38111  1.0000
  N   N176      1.0  0.27855  0.75377  0.38688  1.0000
  H   H286      1.0  0.29461  0.73880  0.43785  1.0000
  C   C497      1.0  0.24327  0.79225  0.51939  1.0000
  H   H287      1.0  0.23423  0.80083  0.52896  1.0000
  H   H288      1.0  0.25416  0.79731  0.54111  1.0000
  H   H289      1.0  0.24067  0.78234  0.56163  1.0000
  C   C498      1.0  0.22234  0.80121  0.36636  1.0000
  H   H290      1.0  0.21289  0.79625  0.39070  1.0000
  C   C499      1.0  0.47806  0.03253  0.34676  1.0000
  C   C500      1.0  0.48676  0.02697  0.42026  1.0000
  N   N177      1.0  0.49516  0.01386  0.40964  1.0000
  C   C501      1.0  0.49591  0.00559  0.33295  1.0000
  C   C502      1.0  0.52191  0.97417  0.39821  1.0000
  N   N178      1.0  0.51307  0.98706  0.39941  1.0000
  H   H291      1.0  0.52774  0.97116  0.45479  1.0000
  C   C503      1.0  0.48736  0.03405  0.51005  1.0000
  H   H292      1.0  0.48022  0.04433  0.51582  1.0000
  H   H293      1.0  0.49923  0.03724  0.52559  1.0000
  H   H294      1.0  0.48338  0.02572  0.55950  1.0000
  C   C504      1.0  0.46928  0.04575  0.35115  1.0000
  H   H295      1.0  0.47449  0.05578  0.36230  1.0000
  C   C505      1.0  0.96698  0.47797  0.34682  1.0000
  C   C506      1.0  0.97254  0.48668  0.42032  1.0000
  N   N179      1.0  0.98564  0.49507  0.40971  1.0000
  C   C507      1.0  0.99391  0.49583  0.33301  1.0000
  C   C508      1.0  0.02533  0.52183  0.39829  1.0000
  N   N180      1.0  0.01244  0.51299  0.39949  1.0000
  H   H296      1.0  0.02835  0.52766  0.45489  1.0000
  C   C509      1.0  0.96546  0.48728  0.51011  1.0000
  H   H297      1.0  0.95517  0.48013  0.51588  1.0000
  H   H298      1.0  0.96227  0.49914  0.52565  1.0000
  H   H299      1.0  0.97379  0.48330  0.55956  1.0000
  C   C510      1.0  0.95376  0.46918  0.35122  1.0000
  H   H300      1.0  0.94373  0.47440  0.36238  1.0000
