data_image0
_chemical_formula_structural       C8H2N2O4C8H2N2O4C2H2C2H2C2H2C2H2C2H2C2H2C2H2C2H2C8H2N2O4C8H2N2O4C8H2N2O4C8H2N2O4C2H2C2H2C2H2C2H2C2H2C2H2C2H2C2H2C8H2N2O4C8H2N2O4C8H2N2O4C8H2N2O4CNCNCNCNCNCNCNCNCNCNCNCNCNCNCNCNCNCNCNCNCNCNCNCNCNCNCNCNCNCNCNCNCNCNCNCNC2H2C2H2C2H2C2H2C8H2N2O4C8H2N2O4C8H2N2O4C8H2N2O4C2H2C2H2C2H2C2H2C2H2C2H2C2H2C2H2C8H2N2O4C8H2N2O4C8H2N2O4C8H2N2O4C2H2C2H2C2H2C2H2C2H2C2H2C2H2C2H2
_chemical_formula_sum              "C252 H108 N72 O72"
_cell_length_a       51.3804
_cell_length_b       51.2198
_cell_length_c       14.8554
_cell_angle_alpha    90
_cell_angle_beta     90
_cell_angle_gamma    90.1844

_space_group_name_H-M_alt    "P 1"
_space_group_IT_number       1

loop_
  _space_group_symop_operation_xyz
  'x, y, z'

loop_
  _atom_site_type_symbol
  _atom_site_label
  _atom_site_symmetry_multiplicity
  _atom_site_fract_x
  _atom_site_fract_y
  _atom_site_fract_z
  _atom_site_occupancy
  C   C1        1.0  0.05268  0.45514  0.33335  1.0000
  C   C2        1.0  0.05552  0.47824  0.28081  1.0000
  C   C3        1.0  0.03562  0.49744  0.28128  1.0000
  C   C4        1.0  0.01276  0.49454  0.33330  1.0000
  C   C5        1.0  0.99284  0.51410  0.33281  1.0000
  C   C6        1.0  0.97942  0.52132  0.25284  1.0000
  C   C7        1.0  0.95975  0.54073  0.25637  1.0000
  C   C8        1.0  0.95350  0.55365  0.33744  1.0000
  H   H1        1.0  0.95012  0.54566  0.19846  1.0000
  H   H2        1.0  0.03803  0.51391  0.24307  1.0000
  N   N1        1.0  0.98545  0.50858  0.17086  1.0000
  N   N2        1.0  0.07773  0.48151  0.22537  1.0000
  O   O1        1.0  0.99350  0.52450  0.11271  1.0000
  O   O2        1.0  0.09043  0.50162  0.24629  1.0000
  O   O3        1.0  0.96608  0.49662  0.13959  1.0000
  O   O4        1.0  0.07168  0.48280  0.14352  1.0000
  C   C9        1.0  0.55237  0.05208  0.33335  1.0000
  C   C10       1.0  0.52939  0.05482  0.28058  1.0000
  C   C11       1.0  0.51020  0.03479  0.28107  1.0000
  C   C12       1.0  0.51298  0.01192  0.33335  1.0000
  C   C13       1.0  0.49340  0.99191  0.33293  1.0000
  C   C14       1.0  0.48626  0.97831  0.25307  1.0000
  C   C15       1.0  0.46675  0.95862  0.25659  1.0000
  C   C16       1.0  0.45367  0.95253  0.33751  1.0000
  H   H3        1.0  0.46187  0.94886  0.19878  1.0000
  H   H4        1.0  0.49380  0.03711  0.24271  1.0000
  N   N3        1.0  0.49915  0.98422  0.17125  1.0000
  N   N4        1.0  0.52623  0.07704  0.22489  1.0000
  O   O5        1.0  0.48344  0.99221  0.11260  1.0000
  O   O6        1.0  0.50621  0.08972  0.24555  1.0000
  O   O7        1.0  0.51098  0.96472  0.14061  1.0000
  O   O8        1.0  0.52497  0.07090  0.14309  1.0000
  C   C17       1.0  0.07411  0.26377  0.30556  1.0000
  C   C18       1.0  0.06839  0.23686  0.30710  1.0000
  H   H5        1.0  0.08925  0.27025  0.26662  1.0000
  H   H6        1.0  0.07931  0.22471  0.26756  1.0000
  C   C19       1.0  0.06898  0.35002  0.27222  1.0000
  C   C20       1.0  0.06368  0.32304  0.27543  1.0000
  H   H7        1.0  0.06767  0.35958  0.21183  1.0000
  H   H8        1.0  0.05819  0.31379  0.21728  1.0000
  C   C21       1.0  0.93233  0.74451  0.30536  1.0000
  C   C22       1.0  0.93830  0.77137  0.30689  1.0000
  H   H9        1.0  0.91694  0.73821  0.26724  1.0000
  H   H10       1.0  0.92728  0.78364  0.26815  1.0000
  C   C23       1.0  0.93585  0.65833  0.27034  1.0000
  C   C24       1.0  0.94141  0.68526  0.27361  1.0000
  H   H11       1.0  0.93641  0.64890  0.20955  1.0000
  H   H12       1.0  0.94628  0.69460  0.21498  1.0000
  C   C25       1.0  0.74321  0.07442  0.30591  1.0000
  C   C26       1.0  0.77002  0.06875  0.30728  1.0000
  H   H13       1.0  0.73684  0.08978  0.26779  1.0000
  H   H14       1.0  0.78217  0.07994  0.26842  1.0000
  C   C27       1.0  0.65734  0.06990  0.27115  1.0000
  C   C28       1.0  0.68420  0.06456  0.27443  1.0000
  H   H15       1.0  0.64795  0.06924  0.21036  1.0000
  H   H16       1.0  0.69351  0.05971  0.21583  1.0000
  C   C29       1.0  0.26347  0.93281  0.30245  1.0000
  C   C30       1.0  0.23677  0.93893  0.30393  1.0000
  H   H17       1.0  0.26965  0.91760  0.26322  1.0000
  H   H18       1.0  0.22447  0.92820  0.26408  1.0000
  C   C31       1.0  0.34962  0.93653  0.27068  1.0000
  C   C32       1.0  0.32285  0.94232  0.27358  1.0000
  H   H19       1.0  0.35929  0.93796  0.21059  1.0000
  H   H20       1.0  0.31387  0.94821  0.21548  1.0000
  C   C33       1.0  0.45869  0.72525  0.32863  1.0000
  C   C34       1.0  0.47340  0.74333  0.27629  1.0000
  C   C35       1.0  0.46687  0.77023  0.27745  1.0000
  C   C36       1.0  0.44601  0.77990  0.32954  1.0000
  C   C37       1.0  0.43978  0.80714  0.32982  1.0000
  C   C38       1.0  0.43317  0.82083  0.24968  1.0000
  C   C39       1.0  0.42728  0.84787  0.25384  1.0000
  C   C40       1.0  0.42819  0.86173  0.33588  1.0000
  H   H21       1.0  0.42226  0.85748  0.19595  1.0000
  H   H22       1.0  0.47774  0.78296  0.23974  1.0000
  N   N5        1.0  0.43173  0.80711  0.16702  1.0000
  N   N6        1.0  0.49380  0.73428  0.22035  1.0000
  O   O9        1.0  0.44735  0.81628  0.11003  1.0000
  O   O10       1.0  0.51526  0.74446  0.24110  1.0000
  O   O11       1.0  0.40916  0.80769  0.13454  1.0000
  O   O12       1.0  0.48928  0.73875  0.13864  1.0000
  C   C41       1.0  0.54798  0.27976  0.32764  1.0000
  C   C42       1.0  0.53279  0.26157  0.27743  1.0000
  C   C43       1.0  0.53926  0.23466  0.27876  1.0000
  C   C44       1.0  0.56062  0.22506  0.32857  1.0000
  C   C45       1.0  0.56679  0.19778  0.32903  1.0000
  C   C46       1.0  0.57168  0.18360  0.24839  1.0000
  C   C47       1.0  0.57746  0.15654  0.25286  1.0000
  C   C48       1.0  0.57838  0.14319  0.33588  1.0000
  H   H23       1.0  0.58124  0.14657  0.19453  1.0000
  H   H24       1.0  0.52797  0.22186  0.24283  1.0000
  N   N7        1.0  0.57171  0.19686  0.16469  1.0000
  N   N8        1.0  0.51192  0.27048  0.22328  1.0000
  O   O13       1.0  0.55508  0.18747  0.11164  1.0000
  O   O14       1.0  0.49063  0.26039  0.24645  1.0000
  O   O15       1.0  0.59367  0.19599  0.12760  1.0000
  O   O16       1.0  0.51576  0.26582  0.14129  1.0000
  C   C49       1.0  0.72654  0.54818  0.32769  1.0000
  C   C50       1.0  0.74451  0.53321  0.27624  1.0000
  C   C51       1.0  0.77138  0.53973  0.27743  1.0000
  C   C52       1.0  0.78115  0.56086  0.32857  1.0000
  C   C53       1.0  0.80837  0.56705  0.32888  1.0000
  C   C54       1.0  0.82226  0.57296  0.24845  1.0000
  C   C55       1.0  0.84927  0.57879  0.25266  1.0000
  C   C56       1.0  0.86290  0.57857  0.33510  1.0000
  H   H25       1.0  0.85901  0.58335  0.19454  1.0000
  H   H26       1.0  0.78403  0.52864  0.24044  1.0000
  N   N9        1.0  0.80876  0.57386  0.16537  1.0000
  N   N10       1.0  0.73542  0.51254  0.22110  1.0000
  O   O17       1.0  0.81786  0.55775  0.10994  1.0000
  O   O18       1.0  0.74540  0.49108  0.24293  1.0000
  O   O19       1.0  0.80963  0.59626  0.13100  1.0000
  O   O20       1.0  0.73999  0.51677  0.13925  1.0000
  C   C57       1.0  0.28018  0.45726  0.32752  1.0000
  C   C58       1.0  0.26237  0.47263  0.27681  1.0000
  C   C59       1.0  0.23542  0.46650  0.27817  1.0000
  C   C60       1.0  0.22541  0.44532  0.32853  1.0000
  C   C61       1.0  0.19810  0.43956  0.32911  1.0000
  C   C62       1.0  0.18388  0.43462  0.24859  1.0000
  C   C63       1.0  0.15678  0.42929  0.25312  1.0000
  C   C64       1.0  0.14341  0.42891  0.33607  1.0000
  H   H27       1.0  0.14681  0.42540  0.19490  1.0000
  H   H28       1.0  0.22290  0.47792  0.24192  1.0000
  N   N11       1.0  0.19714  0.43408  0.16499  1.0000
  N   N12       1.0  0.27167  0.49335  0.22226  1.0000
  O   O21       1.0  0.18820  0.45073  0.11119  1.0000
  O   O22       1.0  0.26202  0.51488  0.24495  1.0000
  O   O23       1.0  0.19580  0.41195  0.12879  1.0000
  O   O24       1.0  0.26697  0.48941  0.14033  1.0000
  C   C65       1.0  0.08841  0.09171  0.29364  1.0000
  C   C66       1.0  0.07086  0.11267  0.29339  1.0000
  H   H29       1.0  0.08391  0.07533  0.25717  1.0000
  H   H30       1.0  0.05434  0.11089  0.25524  1.0000
  C   C67       1.0  0.15316  0.03671  0.27362  1.0000
  C   C68       1.0  0.13901  0.06019  0.27259  1.0000
  H   H31       1.0  0.16002  0.02934  0.21410  1.0000
  H   H32       1.0  0.13644  0.06954  0.21229  1.0000
  C   C69       1.0  0.91890  0.91632  0.29313  1.0000
  C   C70       1.0  0.93638  0.89530  0.29267  1.0000
  H   H33       1.0  0.92334  0.93262  0.25613  1.0000
  H   H34       1.0  0.95279  0.89694  0.25387  1.0000
  C   C71       1.0  0.85402  0.97129  0.27467  1.0000
  C   C72       1.0  0.86818  0.94783  0.27355  1.0000
  H   H35       1.0  0.84680  0.97848  0.21538  1.0000
  H   H36       1.0  0.87042  0.93828  0.21345  1.0000
  C   C73       1.0  0.91470  0.08915  0.29080  1.0000
  C   C74       1.0  0.89358  0.07168  0.29036  1.0000
  H   H37       1.0  0.93094  0.08458  0.25411  1.0000
  H   H38       1.0  0.89513  0.05516  0.25189  1.0000
  C   C75       1.0  0.97091  0.15312  0.27333  1.0000
  C   C76       1.0  0.94713  0.13944  0.27175  1.0000
  H   H39       1.0  0.97841  0.16014  0.21415  1.0000
  H   H40       1.0  0.93772  0.13728  0.21137  1.0000
  C   C77       1.0  0.09219  0.91925  0.29110  1.0000
  C   C78       1.0  0.11329  0.93673  0.29069  1.0000
  H   H41       1.0  0.07591  0.92383  0.25461  1.0000
  H   H42       1.0  0.11172  0.95330  0.25243  1.0000
  C   C79       1.0  0.03636  0.85479  0.27326  1.0000
  C   C80       1.0  0.06005  0.86862  0.27169  1.0000
  H   H43       1.0  0.02895  0.84766  0.21412  1.0000
  H   H44       1.0  0.06951  0.87075  0.21140  1.0000
  C   C81       1.0  0.43116  0.63372  0.34241  1.0000
  C   C82       1.0  0.40789  0.63487  0.29070  1.0000
  C   C83       1.0  0.39053  0.61323  0.29060  1.0000
  C   C84       1.0  0.39567  0.59046  0.34119  1.0000
  C   C85       1.0  0.37941  0.56790  0.33545  1.0000
  C   C86       1.0  0.37635  0.55391  0.25342  1.0000
  C   C87       1.0  0.36246  0.52994  0.25336  1.0000
  C   C88       1.0  0.35133  0.51981  0.33291  1.0000
  H   H45       1.0  0.36133  0.51935  0.19495  1.0000
  H   H46       1.0  0.37415  0.61399  0.25147  1.0000
  N   N13       1.0  0.38851  0.56319  0.17398  1.0000
  N   N14       1.0  0.40298  0.65688  0.23568  1.0000
  O   O25       1.0  0.37214  0.56737  0.11286  1.0000
  O   O26       1.0  0.40212  0.65081  0.15374  1.0000
  O   O27       1.0  0.40521  0.54739  0.14503  1.0000
  O   O28       1.0  0.38198  0.66778  0.25685  1.0000
  C   C89       1.0  0.57554  0.37134  0.34128  1.0000
  C   C90       1.0  0.59877  0.37018  0.28936  1.0000
  C   C91       1.0  0.61616  0.39179  0.28921  1.0000
  C   C92       1.0  0.61112  0.41455  0.33993  1.0000
  C   C93       1.0  0.62746  0.43708  0.33430  1.0000
  C   C94       1.0  0.63069  0.45103  0.25225  1.0000
  C   C95       1.0  0.64465  0.47496  0.25228  1.0000
  C   C96       1.0  0.65570  0.48510  0.33195  1.0000
  H   H47       1.0  0.64586  0.48552  0.19385  1.0000
  H   H48       1.0  0.63253  0.39100  0.24998  1.0000
  N   N15       1.0  0.61858  0.44176  0.17268  1.0000
  N   N16       1.0  0.60360  0.34818  0.23419  1.0000
  O   O29       1.0  0.63501  0.43751  0.11180  1.0000
  O   O30       1.0  0.60440  0.35428  0.15227  1.0000
  O   O31       1.0  0.60197  0.45760  0.14345  1.0000
  O   O32       1.0  0.62460  0.33724  0.25509  1.0000
  C   C97       1.0  0.63533  0.57554  0.34264  1.0000
  C   C98       1.0  0.63623  0.59860  0.28938  1.0000
  C   C99       1.0  0.61460  0.61580  0.28894  1.0000
  C   C100      1.0  0.59207  0.61071  0.34068  1.0000
  C   C101      1.0  0.56948  0.62674  0.33456  1.0000
  C   C102      1.0  0.55523  0.62910  0.25289  1.0000
  C   C103      1.0  0.53129  0.64279  0.25267  1.0000
  C   C104      1.0  0.52144  0.65447  0.33161  1.0000
  H   H49       1.0  0.52054  0.64341  0.19461  1.0000
  H   H50       1.0  0.61516  0.63201  0.24865  1.0000
  N   N17       1.0  0.56428  0.61647  0.17408  1.0000
  N   N18       1.0  0.65798  0.60341  0.23321  1.0000
  O   O33       1.0  0.56821  0.63254  0.11157  1.0000
  O   O34       1.0  0.65167  0.60375  0.15147  1.0000
  O   O35       1.0  0.54850  0.59939  0.14701  1.0000
  O   O36       1.0  0.66884  0.62470  0.25253  1.0000
  C   C105      1.0  0.37127  0.42926  0.34336  1.0000
  C   C106      1.0  0.37024  0.40609  0.29067  1.0000
  C   C107      1.0  0.39183  0.38884  0.29029  1.0000
  C   C108      1.0  0.41445  0.39397  0.34152  1.0000
  C   C109      1.0  0.43703  0.37793  0.33530  1.0000
  C   C110      1.0  0.45108  0.37532  0.25331  1.0000
  C   C111      1.0  0.47509  0.36176  0.25295  1.0000
  C   C112      1.0  0.48522  0.35048  0.33216  1.0000
  H   H51       1.0  0.48569  0.36096  0.19460  1.0000
  H   H52       1.0  0.39117  0.37255  0.25037  1.0000
  N   N19       1.0  0.44177  0.38762  0.17421  1.0000
  N   N20       1.0  0.34840  0.40123  0.23496  1.0000
  O   O37       1.0  0.43777  0.37130  0.11253  1.0000
  O   O38       1.0  0.35460  0.40070  0.15314  1.0000
  O   O39       1.0  0.45740  0.40467  0.14592  1.0000
  O   O40       1.0  0.33750  0.38001  0.25500  1.0000
  C   C113      1.0  0.11669  0.42246  0.33950  1.0000
  N   N21       1.0  0.09803  0.44120  0.33518  1.0000
  C   C114      1.0  0.07213  0.43517  0.33648  1.0000
  N   N22       1.0  0.06542  0.40940  0.34207  1.0000
  C   C115      1.0  0.08370  0.39025  0.34622  1.0000
  N   N23       1.0  0.10927  0.39705  0.34484  1.0000
  C   C116      1.0  0.88958  0.58527  0.33838  1.0000
  N   N24       1.0  0.90839  0.56661  0.33635  1.0000
  C   C117      1.0  0.93408  0.57320  0.33953  1.0000
  N   N25       1.0  0.94079  0.59891  0.34400  1.0000
  C   C118      1.0  0.92228  0.61786  0.34554  1.0000
  N   N26       1.0  0.89676  0.61080  0.34282  1.0000
  C   C119      1.0  0.58495  0.11647  0.33918  1.0000
  N   N27       1.0  0.56629  0.09761  0.33508  1.0000
  C   C120      1.0  0.57230  0.07169  0.33652  1.0000
  N   N28       1.0  0.59799  0.06512  0.34210  1.0000
  C   C121      1.0  0.61708  0.08359  0.34597  1.0000
  N   N29       1.0  0.61030  0.10920  0.34440  1.0000
  C   C122      1.0  0.42166  0.88848  0.33905  1.0000
  N   N30       1.0  0.44040  0.90731  0.33695  1.0000
  C   C123      1.0  0.43403  0.93309  0.33958  1.0000
  N   N31       1.0  0.40845  0.93987  0.34358  1.0000
  C   C124      1.0  0.38940  0.92133  0.34534  1.0000
  N   N32       1.0  0.39625  0.89572  0.34315  1.0000
  C   C125      1.0  0.01078  0.16503  0.35287  1.0000
  N   N33       1.0  0.01664  0.19087  0.35594  1.0000
  C   C126      1.0  0.04178  0.19946  0.35581  1.0000
  N   N34       1.0  0.06107  0.18121  0.35153  1.0000
  C   C127      1.0  0.05583  0.15510  0.34805  1.0000
  N   N35       1.0  0.03046  0.14757  0.34919  1.0000
  C   C128      1.0  0.99642  0.84292  0.35249  1.0000
  N   N36       1.0  0.99051  0.81708  0.35518  1.0000
  C   C129      1.0  0.96534  0.80854  0.35495  1.0000
  N   N37       1.0  0.94610  0.82686  0.35098  1.0000
  C   C130      1.0  0.95141  0.85295  0.34780  1.0000
  N   N38       1.0  0.97678  0.86043  0.34904  1.0000
  C   C131      1.0  0.84169  0.01127  0.35299  1.0000
  N   N39       1.0  0.81591  0.01690  0.35598  1.0000
  C   C132      1.0  0.80725  0.04206  0.35508  1.0000
  N   N40       1.0  0.82541  0.06157  0.35009  1.0000
  C   C133      1.0  0.85143  0.05653  0.34649  1.0000
  N   N41       1.0  0.85901  0.03117  0.34850  1.0000
  C   C134      1.0  0.16576  0.99689  0.35234  1.0000
  N   N42       1.0  0.19150  0.99103  0.35499  1.0000
  C   C135      1.0  0.19991  0.96579  0.35379  1.0000
  N   N43       1.0  0.18159  0.94646  0.34908  1.0000
  C   C136      1.0  0.15560  0.95171  0.34599  1.0000
  N   N44       1.0  0.14825  0.97714  0.34803  1.0000
  C   C137      1.0  0.49572  0.66383  0.33349  1.0000
  N   N45       1.0  0.48980  0.68963  0.33090  1.0000
  C   C138      1.0  0.46463  0.69801  0.33165  1.0000
  N   N46       1.0  0.44540  0.67957  0.33608  1.0000
  C   C139      1.0  0.45071  0.65352  0.33920  1.0000
  N   N47       1.0  0.47608  0.64621  0.33740  1.0000
  C   C140      1.0  0.51096  0.34119  0.33362  1.0000
  N   N48       1.0  0.51689  0.31541  0.33071  1.0000
  C   C141      1.0  0.54207  0.30702  0.33081  1.0000
  N   N49       1.0  0.56129  0.32548  0.33491  1.0000
  C   C142      1.0  0.55598  0.35154  0.33833  1.0000
  N   N50       1.0  0.53059  0.35883  0.33718  1.0000
  C   C143      1.0  0.66515  0.51091  0.33377  1.0000
  N   N51       1.0  0.69088  0.51692  0.33050  1.0000
  C   C144      1.0  0.69934  0.54220  0.33099  1.0000
  N   N52       1.0  0.68103  0.56144  0.33570  1.0000
  C   C145      1.0  0.65504  0.55603  0.33946  1.0000
  N   N53       1.0  0.64766  0.53056  0.33799  1.0000
  C   C146      1.0  0.34180  0.49404  0.33456  1.0000
  N   N54       1.0  0.31606  0.48819  0.33102  1.0000
  C   C147      1.0  0.30743  0.46298  0.33114  1.0000
  N   N55       1.0  0.32562  0.44361  0.33591  1.0000
  C   C148      1.0  0.35165  0.44886  0.33998  1.0000
  N   N56       1.0  0.35917  0.47429  0.33874  1.0000
  C   C149      1.0  0.01020  0.47165  0.38558  1.0000
  C   C150      1.0  0.02960  0.45226  0.38475  1.0000
  H   H53       1.0  0.99389  0.46872  0.42394  1.0000
  H   H54       1.0  0.02688  0.43607  0.42419  1.0000
  C   C151      1.0  0.96711  0.54661  0.41621  1.0000
  C   C152      1.0  0.98620  0.52692  0.41408  1.0000
  H   H55       1.0  0.96297  0.55554  0.47619  1.0000
  H   H56       1.0  0.99565  0.52233  0.47268  1.0000
  C   C153      1.0  0.53576  0.00946  0.38584  1.0000
  C   C154      1.0  0.55515  0.02899  0.38497  1.0000
  H   H57       1.0  0.53860  0.99314  0.42440  1.0000
  H   H58       1.0  0.57125  0.02634  0.42457  1.0000
  C   C155      1.0  0.46065  0.96630  0.41616  1.0000
  C   C156      1.0  0.48043  0.98542  0.41406  1.0000
  H   H59       1.0  0.45160  0.96228  0.47601  1.0000
  H   H60       1.0  0.48497  0.99501  0.47254  1.0000
  C   C157      1.0  0.04754  0.22676  0.35907  1.0000
  C   C158      1.0  0.03277  0.24457  0.41190  1.0000
  C   C159      1.0  0.03900  0.27158  0.41062  1.0000
  C   C160      1.0  0.05957  0.28159  0.35765  1.0000
  C   C161      1.0  0.06546  0.30890  0.35710  1.0000
  C   C162      1.0  0.07304  0.32250  0.43645  1.0000
  C   C163      1.0  0.07888  0.34958  0.43186  1.0000
  C   C164      1.0  0.07669  0.36360  0.35045  1.0000
  H   H61       1.0  0.08475  0.35911  0.48902  1.0000
  H   H62       1.0  0.02814  0.28413  0.44878  1.0000
  N   N57       1.0  0.07541  0.30866  0.51858  1.0000
  N   N58       1.0  0.01256  0.23518  0.46825  1.0000
  O   O41       1.0  0.06036  0.31761  0.57761  1.0000
  O   O42       1.0  0.99096  0.24499  0.44790  1.0000
  O   O43       1.0  0.09830  0.30943  0.54824  1.0000
  O   O44       1.0  0.01716  0.23973  0.54986  1.0000
  C   C165      1.0  0.95944  0.78125  0.35788  1.0000
  C   C166      1.0  0.97431  0.76325  0.40962  1.0000
  C   C167      1.0  0.96786  0.73628  0.40824  1.0000
  C   C168      1.0  0.94694  0.72649  0.35641  1.0000
  C   C169      1.0  0.94078  0.69920  0.35589  1.0000
  C   C170      1.0  0.93407  0.68543  0.43584  1.0000
  C   C171      1.0  0.92809  0.65838  0.43136  1.0000
  C   C172      1.0  0.92911  0.64457  0.34926  1.0000
  H   H63       1.0  0.92292  0.64872  0.48907  1.0000
  H   H64       1.0  0.97882  0.72360  0.44556  1.0000
  N   N59       1.0  0.93264  0.69908  0.51862  1.0000
  N   N60       1.0  0.99482  0.77240  0.46515  1.0000
  O   O45       1.0  0.94824  0.68992  0.57551  1.0000
  O   O46       1.0  0.01626  0.76245  0.44364  1.0000
  O   O47       1.0  0.91007  0.69837  0.55107  1.0000
  O   O48       1.0  0.99050  0.76779  0.54691  1.0000
  C   C173      1.0  0.78001  0.04766  0.35825  1.0000
  C   C174      1.0  0.76216  0.03255  0.41013  1.0000
  C   C175      1.0  0.73525  0.03872  0.40892  1.0000
  C   C176      1.0  0.72535  0.05957  0.35709  1.0000
  C   C177      1.0  0.69812  0.06543  0.35665  1.0000
  C   C178      1.0  0.68440  0.07213  0.43655  1.0000
  C   C179      1.0  0.65743  0.07795  0.43202  1.0000
  C   C180      1.0  0.64364  0.07668  0.34998  1.0000
  H   H65       1.0  0.64781  0.08317  0.48965  1.0000
  H   H66       1.0  0.72268  0.02758  0.44634  1.0000
  N   N61       1.0  0.69802  0.07374  0.51928  1.0000
  N   N62       1.0  0.77140  0.01208  0.46560  1.0000
  O   O49       1.0  0.68891  0.05805  0.57631  1.0000
  O   O50       1.0  0.76157  0.99046  0.44410  1.0000
  O   O51       1.0  0.69727  0.09640  0.55156  1.0000
  O   O52       1.0  0.76682  0.01635  0.54738  1.0000
  C   C181      1.0  0.22706  0.95983  0.35648  1.0000
  C   C182      1.0  0.24509  0.97429  0.40978  1.0000
  C   C183      1.0  0.27189  0.96765  0.40859  1.0000
  C   C184      1.0  0.28149  0.94699  0.35519  1.0000
  C   C185      1.0  0.30858  0.94058  0.35492  1.0000
  C   C186      1.0  0.32182  0.93248  0.43422  1.0000
  C   C187      1.0  0.34868  0.92615  0.42993  1.0000
  C   C188      1.0  0.36283  0.92829  0.34884  1.0000
  H   H67       1.0  0.35797  0.92002  0.48713  1.0000
  H   H68       1.0  0.28459  0.97826  0.44724  1.0000
  N   N63       1.0  0.30785  0.93014  0.51602  1.0000
  N   N64       1.0  0.23607  0.99455  0.46660  1.0000
  O   O53       1.0  0.31706  0.94491  0.57570  1.0000
  O   O54       1.0  0.24630  0.01612  0.44697  1.0000
  O   O55       1.0  0.30800  0.90709  0.54494  1.0000
  O   O56       1.0  0.24044  0.98967  0.54812  1.0000
  C   C189      1.0  0.43155  0.76180  0.38119  1.0000
  C   C190      1.0  0.43760  0.73500  0.37995  1.0000
  H   H69       1.0  0.41620  0.76800  0.41952  1.0000
  H   H70       1.0  0.42669  0.72267  0.41908  1.0000
  C   C191      1.0  0.43474  0.84804  0.41503  1.0000
  C   C192      1.0  0.44029  0.82114  0.41202  1.0000
  H   H71       1.0  0.43529  0.85752  0.47572  1.0000
  H   H72       1.0  0.44510  0.81187  0.47078  1.0000
  C   C193      1.0  0.57557  0.24328  0.37799  1.0000
  C   C194      1.0  0.56952  0.27008  0.37682  1.0000
  H   H73       1.0  0.59129  0.23718  0.41468  1.0000
  H   H74       1.0  0.58081  0.28248  0.41443  1.0000
  C   C195      1.0  0.57371  0.15737  0.41555  1.0000
  C   C196      1.0  0.56805  0.18424  0.41207  1.0000
  H   H75       1.0  0.57448  0.14826  0.47686  1.0000
  H   H76       1.0  0.56451  0.19384  0.47129  1.0000
  C   C197      1.0  0.76316  0.57557  0.37932  1.0000
  C   C198      1.0  0.73639  0.56951  0.37811  1.0000
  H   H77       1.0  0.76941  0.59111  0.41699  1.0000
  H   H78       1.0  0.72416  0.58062  0.41666  1.0000
  C   C199      1.0  0.84902  0.57280  0.41457  1.0000
  C   C200      1.0  0.82217  0.56724  0.41143  1.0000
  H   H79       1.0  0.85833  0.57280  0.47555  1.0000
  H   H80       1.0  0.81277  0.56296  0.47045  1.0000
  C   C201      1.0  0.24327  0.43018  0.37837  1.0000
  C   C202      1.0  0.27010  0.43588  0.37715  1.0000
  H   H81       1.0  0.23685  0.41459  0.41548  1.0000
  H   H82       1.0  0.28222  0.42449  0.41517  1.0000
  C   C203      1.0  0.15762  0.43361  0.41565  1.0000
  C   C204      1.0  0.18453  0.43883  0.41211  1.0000
  H   H83       1.0  0.14850  0.43315  0.47694  1.0000
  H   H84       1.0  0.19416  0.44240  0.47125  1.0000
  C   C205      1.0  0.07545  0.13548  0.34515  1.0000
  C   C206      1.0  0.09868  0.13686  0.39711  1.0000
  C   C207      1.0  0.11615  0.11543  0.39728  1.0000
  C   C208      1.0  0.11121  0.09261  0.34653  1.0000
  C   C209      1.0  0.12766  0.07027  0.35211  1.0000
  C   C210      1.0  0.13088  0.05629  0.43404  1.0000
  C   C211      1.0  0.14500  0.03254  0.43397  1.0000
  C   C212      1.0  0.15625  0.02263  0.35440  1.0000
  H   H85       1.0  0.14619  0.02193  0.49228  1.0000
  H   H86       1.0  0.13252  0.11638  0.43653  1.0000
  N   N65       1.0  0.11860  0.06532  0.51352  1.0000
  N   N66       1.0  0.10343  0.15891  0.45226  1.0000
  O   O57       1.0  0.13492  0.06973  0.57471  1.0000
  O   O58       1.0  0.10425  0.15282  0.53418  1.0000
  O   O59       1.0  0.10206  0.04923  0.54229  1.0000
  O   O60       1.0  0.12440  0.17006  0.43134  1.0000
  C   C213      1.0  0.93185  0.87261  0.34511  1.0000
  C   C214      1.0  0.90881  0.87141  0.39804  1.0000
  C   C215      1.0  0.89142  0.89290  0.39844  1.0000
  C   C216      1.0  0.89629  0.91559  0.34695  1.0000
  C   C217      1.0  0.87994  0.93799  0.35271  1.0000
  C   C218      1.0  0.87716  0.95220  0.43436  1.0000
  C   C219      1.0  0.86305  0.97595  0.43434  1.0000
  C   C220      1.0  0.85137  0.98561  0.35516  1.0000
  H   H87       1.0  0.86214  0.98671  0.49238  1.0000
  H   H88       1.0  0.87519  0.89210  0.43839  1.0000
  N   N67       1.0  0.88983  0.94337  0.51338  1.0000
  N   N68       1.0  0.90418  0.84948  0.45391  1.0000
  O   O61       1.0  0.87381  0.93913  0.57565  1.0000
  O   O62       1.0  0.90368  0.85574  0.53571  1.0000
  O   O63       1.0  0.90650  0.95954  0.54070  1.0000
  O   O64       1.0  0.88311  0.83837  0.43416  1.0000
  C   C221      1.0  0.87101  0.07628  0.34283  1.0000
  C   C222      1.0  0.86996  0.09947  0.39535  1.0000
  C   C223      1.0  0.89154  0.11687  0.39565  1.0000
  C   C224      1.0  0.91417  0.11186  0.34449  1.0000
  C   C225      1.0  0.93677  0.12800  0.35083  1.0000
  C   C226      1.0  0.95079  0.13065  0.43290  1.0000
  C   C227      1.0  0.97485  0.14428  0.43334  1.0000
  C   C228      1.0  0.98506  0.15558  0.35417  1.0000
  H   H89       1.0  0.98542  0.14514  0.49177  1.0000
  H   H90       1.0  0.89087  0.13317  0.43550  1.0000
  N   N69       1.0  0.94140  0.11835  0.51197  1.0000
  N   N70       1.0  0.84811  0.10421  0.45103  1.0000
  O   O65       1.0  0.93743  0.13467  0.57359  1.0000
  O   O66       1.0  0.85431  0.10482  0.53286  1.0000
  O   O67       1.0  0.95696  0.10135  0.54040  1.0000
  O   O68       1.0  0.83721  0.12533  0.43088  1.0000
  C   C229      1.0  0.13592  0.93206  0.34274  1.0000
  C   C230      1.0  0.13703  0.90882  0.39497  1.0000
  C   C231      1.0  0.11546  0.89141  0.39530  1.0000
  C   C232      1.0  0.09280  0.89647  0.34441  1.0000
  C   C233      1.0  0.07025  0.88025  0.35069  1.0000
  C   C234      1.0  0.05617  0.87765  0.43264  1.0000
  C   C235      1.0  0.03219  0.86389  0.43307  1.0000
  C   C236      1.0  0.02215  0.85239  0.35399  1.0000
  H   H91       1.0  0.02155  0.86309  0.49136  1.0000
  H   H92       1.0  0.11617  0.87506  0.43492  1.0000
  N   N71       1.0  0.06542  0.89015  0.51156  1.0000
  N   N72       1.0  0.15894  0.90400  0.45029  1.0000
  O   O69       1.0  0.06942  0.87396  0.57355  1.0000
  O   O70       1.0  0.15283  0.90330  0.53220  1.0000
  O   O71       1.0  0.04975  0.90711  0.53946  1.0000
  O   O72       1.0  0.16982  0.88290  0.42971  1.0000
  C   C237      1.0  0.41849  0.58981  0.39392  1.0000
  C   C238      1.0  0.43592  0.61098  0.39411  1.0000
  H   H93       1.0  0.42312  0.57347  0.43022  1.0000
  H   H94       1.0  0.45249  0.60938  0.43207  1.0000
  C   C239      1.0  0.35426  0.53390  0.41377  1.0000
  C   C240      1.0  0.36816  0.55761  0.41493  1.0000
  H   H95       1.0  0.34741  0.52642  0.47319  1.0000
  H   H96       1.0  0.37062  0.56699  0.47526  1.0000
  C   C241      1.0  0.58833  0.41522  0.39282  1.0000
  C   C242      1.0  0.57086  0.39408  0.39307  1.0000
  H   H97       1.0  0.58375  0.43156  0.42926  1.0000
  H   H98       1.0  0.55433  0.39570  0.43122  1.0000
  C   C243      1.0  0.65261  0.47105  0.41283  1.0000
  C   C244      1.0  0.63864  0.44739  0.41390  1.0000
  H   H99       1.0  0.65937  0.47857  0.47236  1.0000
  H   H100      1.0  0.63607  0.43805  0.47424  1.0000
  C   C245      1.0  0.59166  0.58811  0.39495  1.0000
  C   C246      1.0  0.61283  0.57083  0.39547  1.0000
  H   H101      1.0  0.57549  0.58350  0.43210  1.0000
  H   H102      1.0  0.61140  0.55438  0.43445  1.0000
  C   C247      1.0  0.53580  0.65226  0.41207  1.0000
  C   C248      1.0  0.55945  0.63850  0.41347  1.0000
  H   H103      1.0  0.52852  0.65949  0.47120  1.0000
  H   H104      1.0  0.56902  0.63655  0.47359  1.0000
  C   C249      1.0  0.41496  0.41665  0.39535  1.0000
  C   C250      1.0  0.39384  0.43398  0.39587  1.0000
  H   H105      1.0  0.43119  0.42131  0.43214  1.0000
  H   H106      1.0  0.39537  0.45048  0.43450  1.0000
  C   C251      1.0  0.47105  0.35289  0.41295  1.0000
  C   C252      1.0  0.44732  0.36651  0.41442  1.0000
  H   H107      1.0  0.47852  0.34591  0.47216  1.0000
  H   H108      1.0  0.43790  0.36863  0.47475  1.0000
