data_image0
_chemical_formula_structural       C2H3C2H2CH2C2H4C2H2C2H2C4NC2NC4H4C4NC2NC4H4C2H2C2H2C2H2C2H2C4NC2NC4H4C4NC2NC4H4C2H2C2H2C2H2C2H2C2H2C2H2C2H2C2H2C4NC2NC2H2C4NC2NC2H2C4NC2NC2H2C4NC2NC2H2CNCNCNCNCNCNCNCNCNCNCNCNCNCNCNCNCNCNCNCNCNCNCNCNCNCNCNCNCNCNCNCNCNCNCNCNC4NC2NC4H3C4NC2NC3H2C4NC2NC4H2C4NC2NC2H2C2H2C2H2C4NC2NC2H2C4NC2NC2H2C2H2C2H2C4NC2NC2H2C4NC2NC2H2C4NC2NC2H2C4NC2NC2H2C2H2C2H2C2H2C2H2C2H2C2H2C2H2C2H2C2H3C2H2CH2C2H4C2H2C2H2C4NC2NC4H4C4NC2NC4H4C2H2C2H2C2H2C2H2C4NC2NC4H4C4NC2NC4H4C2H2C2H2C2H2C2H2C2H2C2H2C2H2C2H2C4NC2NC2H2C4NC2NC2H2C4NC2NC2H2C4NC2NC2H2CNCNCNCNCNCNCNCNCNCNCNCNCNCNCNCNCNCNCNCNCNCNCNCNCNCNCNCNCNCNCNCNCNCNCNCNC4NC2NC4H3C4NC2NC3H2C4NC2NC4H2C4NC2NC2H2C2H2C2H2C4NC2NC2H2C4NC2NC2H2C2H2C2H2C4NC2NC2H2C4NC2NC2H2C4NC2NC2H2C4NC2NC2H2C2H2C2H2C2H2C2H2C2H2C2H2C2H2C2H2
_chemical_formula_sum              "C504 H216 N144"
_cell_length_a       42.568
_cell_length_b       55.1877
_cell_length_c       14.9055
_cell_angle_alpha    90
_cell_angle_beta     90
_cell_angle_gamma    90

_space_group_name_H-M_alt    "P 1"
_space_group_IT_number       1

loop_
  _space_group_symop_operation_xyz
  'x, y, z'

loop_
  _atom_site_type_symbol
  _atom_site_label
  _atom_site_symmetry_multiplicity
  _atom_site_fract_x
  _atom_site_fract_y
  _atom_site_fract_z
  _atom_site_occupancy
  C   C1        1.0  0.23557  0.18977  0.27471  1.0000
  C   C2        1.0  0.26843  0.18998  0.27826  1.0000
  H   H1        1.0  0.27944  0.20313  0.24141  1.0000
  H   H2        1.0  0.22487  0.20278  0.23639  1.0000
  H   H3        1.0  0.22159  0.08946  0.00278  1.0000
  C   C3        1.0  0.26719  0.82146  0.26212  1.0000
  C   C4        1.0  0.23432  0.82057  0.26845  1.0000
  H   H4        1.0  0.22283  0.80892  0.22625  1.0000
  H   H5        1.0  0.27787  0.81016  0.21688  1.0000
  C   C5        1.0  0.24010  0.89045  0.00659  1.0000
  H   H6        1.0  0.28420  0.90422  0.04273  1.0000
  H   H7        1.0  0.22914  0.89564  0.06454  1.0000
  C   C6        1.0  0.48260  0.69043  0.28117  1.0000
  C   C7        1.0  0.01544  0.69070  0.28476  1.0000
  H   H8        1.0  0.02645  0.70396  0.24842  1.0000
  H   H9        1.0  0.47188  0.70349  0.24305  1.0000
  H   H10       1.0  0.46942  0.59002  0.00879  1.0000
  H   H11       1.0  0.02598  0.58723  0.00088  1.0000
  C   C8        1.0  0.01872  0.32097  0.26292  1.0000
  C   C9        1.0  0.48580  0.32030  0.26695  1.0000
  H   H12       1.0  0.47452  0.30896  0.22312  1.0000
  H   H13       1.0  0.02966  0.30984  0.21761  1.0000
  C   C10       1.0  0.02195  0.39171  0.00172  1.0000
  C   C11       1.0  0.49020  0.38565  0.01475  1.0000
  H   H14       1.0  0.03360  0.40058  0.05138  1.0000
  H   H15       1.0  0.47933  0.38964  0.07411  1.0000
  C   C12       1.0  0.05656  0.10870  0.35807  1.0000
  C   C13       1.0  0.08460  0.10355  0.31041  1.0000
  C   C14       1.0  0.10999  0.12061  0.30686  1.0000
  C   C15       1.0  0.10830  0.14317  0.35309  1.0000
  N   N1        1.0  0.13298  0.11662  0.24487  1.0000
  C   C16       1.0  0.13326  0.09746  0.18764  1.0000
  C   C17       1.0  0.10831  0.08053  0.19252  1.0000
  N   N2        1.0  0.08518  0.08440  0.25307  1.0000
  C   C18       1.0  0.15604  0.09518  0.11959  1.0000
  C   C19       1.0  0.15353  0.07630  0.05629  1.0000
  C   C20       1.0  0.12884  0.05941  0.06184  1.0000
  C   C21       1.0  0.10628  0.06139  0.13037  1.0000
  H   H16       1.0  0.17360  0.10773  0.11362  1.0000
  H   H17       1.0  0.16928  0.07500  0.00494  1.0000
  H   H18       1.0  0.12698  0.04594  0.01503  1.0000
  H   H19       1.0  0.08782  0.04954  0.13244  1.0000
  C   C22       1.0  0.44712  0.89892  0.35781  1.0000
  C   C23       1.0  0.41893  0.90441  0.31147  1.0000
  C   C24       1.0  0.39361  0.88730  0.30758  1.0000
  C   C25       1.0  0.39509  0.86460  0.35279  1.0000
  N   N3        1.0  0.37067  0.89137  0.24591  1.0000
  C   C26       1.0  0.37009  0.91079  0.19031  1.0000
  C   C27       1.0  0.39443  0.92815  0.19675  1.0000
  N   N4        1.0  0.41787  0.92405  0.25629  1.0000
  C   C28       1.0  0.34730  0.91283  0.12262  1.0000
  C   C29       1.0  0.34856  0.93229  0.06158  1.0000
  C   C30       1.0  0.37239  0.94988  0.06915  1.0000
  C   C31       1.0  0.39528  0.94789  0.13695  1.0000
  H   H20       1.0  0.33073  0.89962  0.11590  1.0000
  H   H21       1.0  0.33236  0.93354  0.01118  1.0000
  H   H22       1.0  0.37339  0.96389  0.02435  1.0000
  H   H23       1.0  0.41298  0.96034  0.14072  1.0000
  C   C32       1.0  0.42292  0.14628  0.29376  1.0000
  C   C33       1.0  0.44710  0.12899  0.29418  1.0000
  H   H24       1.0  0.46549  0.13160  0.25091  1.0000
  H   H25       1.0  0.42485  0.16029  0.24902  1.0000
  C   C34       1.0  0.36548  0.09613  0.03872  1.0000
  C   C35       1.0  0.38670  0.07666  0.03139  1.0000
  H   H26       1.0  0.35295  0.09853  0.09656  1.0000
  H   H27       1.0  0.38960  0.06497  0.08397  1.0000
  C   C36       1.0  0.08035  0.85951  0.31921  1.0000
  C   C37       1.0  0.05606  0.87661  0.31563  1.0000
  H   H28       1.0  0.03746  0.87292  0.27417  1.0000
  H   H29       1.0  0.07802  0.84470  0.27834  1.0000
  C   C38       1.0  0.13949  0.92191  0.03955  1.0000
  C   C39       1.0  0.11880  0.94128  0.02314  1.0000
  H   H30       1.0  0.15141  0.92100  0.09902  1.0000
  H   H31       1.0  0.11584  0.95450  0.07048  1.0000
  C   C40       1.0  0.30283  0.60908  0.34578  1.0000
  C   C41       1.0  0.33136  0.60368  0.30090  1.0000
  C   C42       1.0  0.35671  0.62079  0.29749  1.0000
  C   C43       1.0  0.35460  0.64361  0.34170  1.0000
  N   N5        1.0  0.38032  0.61641  0.23782  1.0000
  C   C44       1.0  0.38127  0.59673  0.18309  1.0000
  C   C45       1.0  0.35658  0.57959  0.18883  1.0000
  N   N6        1.0  0.33275  0.58390  0.24673  1.0000
  C   C46       1.0  0.40460  0.59398  0.11682  1.0000
  C   C47       1.0  0.40293  0.57439  0.05627  1.0000
  C   C48       1.0  0.37864  0.55720  0.06318  1.0000
  C   C49       1.0  0.35555  0.55967  0.13001  1.0000
  H   H32       1.0  0.42195  0.60667  0.11008  1.0000
  H   H33       1.0  0.41908  0.57269  0.00613  1.0000
  H   H34       1.0  0.37746  0.54314  0.01865  1.0000
  H   H35       1.0  0.33753  0.54749  0.13346  1.0000
  C   C50       1.0  0.19796  0.39860  0.35585  1.0000
  C   C51       1.0  0.16985  0.40393  0.30892  1.0000
  C   C52       1.0  0.14466  0.38673  0.30488  1.0000
  C   C53       1.0  0.14639  0.36403  0.34992  1.0000
  N   N7        1.0  0.12176  0.39066  0.24294  1.0000
  C   C54       1.0  0.12122  0.40998  0.18687  1.0000
  C   C55       1.0  0.14559  0.42734  0.19275  1.0000
  N   N8        1.0  0.16888  0.42340  0.25288  1.0000
  C   C56       1.0  0.09854  0.41186  0.11884  1.0000
  C   C57       1.0  0.09987  0.43113  0.05704  1.0000
  C   C58       1.0  0.12383  0.44864  0.06380  1.0000
  C   C59       1.0  0.14672  0.44681  0.13173  1.0000
  H   H36       1.0  0.08207  0.39859  0.11225  1.0000
  H   H37       1.0  0.08372  0.43222  0.00644  1.0000
  H   H38       1.0  0.12500  0.46243  0.01813  1.0000
  H   H39       1.0  0.16471  0.45907  0.13434  1.0000
  C   C60       1.0  0.16881  0.64585  0.29630  1.0000
  C   C61       1.0  0.19292  0.62854  0.29575  1.0000
  H   H40       1.0  0.21079  0.63093  0.25056  1.0000
  H   H41       1.0  0.17031  0.65965  0.25054  1.0000
  C   C62       1.0  0.11428  0.59671  0.04665  1.0000
  C   C63       1.0  0.13604  0.57759  0.03972  1.0000
  H   H42       1.0  0.10196  0.59916  0.10484  1.0000
  H   H43       1.0  0.13952  0.56622  0.09294  1.0000
  C   C64       1.0  0.33116  0.35992  0.30728  1.0000
  C   C65       1.0  0.30688  0.37705  0.30352  1.0000
  H   H44       1.0  0.28811  0.37325  0.26285  1.0000
  H   H45       1.0  0.32866  0.34496  0.26728  1.0000
  C   C66       1.0  0.39313  0.42348  0.02163  1.0000
  C   C67       1.0  0.37154  0.44239  0.00742  1.0000
  H   H46       1.0  0.40601  0.42292  0.07948  1.0000
  H   H47       1.0  0.36881  0.45563  0.05476  1.0000
  C   C68       1.0  0.14065  0.24358  0.26287  1.0000
  C   C69       1.0  0.13327  0.26844  0.26371  1.0000
  H   H48       1.0  0.13818  0.27863  0.20802  1.0000
  H   H49       1.0  0.15098  0.23645  0.20671  1.0000
  C   C70       1.0  0.08630  0.23261  0.05601  1.0000
  C   C71       1.0  0.07890  0.25748  0.05699  1.0000
  H   H50       1.0  0.08330  0.22243  0.11271  1.0000
  H   H51       1.0  0.07053  0.26531  0.11441  1.0000
  C   C72       1.0  0.35987  0.76457  0.26260  1.0000
  C   C73       1.0  0.36666  0.73961  0.26370  1.0000
  H   H52       1.0  0.36175  0.72947  0.20787  1.0000
  H   H53       1.0  0.34986  0.77180  0.20614  1.0000
  C   C74       1.0  0.41394  0.77473  0.05647  1.0000
  C   C75       1.0  0.42082  0.74976  0.05726  1.0000
  H   H54       1.0  0.41709  0.78481  0.11333  1.0000
  H   H55       1.0  0.42893  0.74177  0.11467  1.0000
  C   C76       1.0  0.38376  0.27927  0.30880  1.0000
  C   C77       1.0  0.39131  0.26454  0.23391  1.0000
  C   C78       1.0  0.38418  0.23929  0.23438  1.0000
  C   C79       1.0  0.37009  0.22854  0.31061  1.0000
  N   N9        1.0  0.39019  0.22620  0.15887  1.0000
  C   C80       1.0  0.40264  0.23601  0.08328  1.0000
  C   C81       1.0  0.40991  0.26109  0.08291  1.0000
  N   N10       1.0  0.40394  0.27422  0.15801  1.0000
  C   C82       1.0  0.40769  0.22200  0.00560  1.0000
  C   C83       1.0  0.42218  0.27196  0.00492  1.0000
  H   H56       1.0  0.40226  0.20395  0.00516  1.0000
  H   H57       1.0  0.42722  0.29008  0.00397  1.0000
  C   C84       1.0  0.11783  0.72858  0.31714  1.0000
  C   C85       1.0  0.13214  0.73933  0.24124  1.0000
  C   C86       1.0  0.13985  0.76449  0.24161  1.0000
  C   C87       1.0  0.13274  0.77911  0.31718  1.0000
  N   N11       1.0  0.15255  0.77419  0.16585  1.0000
  C   C88       1.0  0.15810  0.76118  0.09019  1.0000
  C   C89       1.0  0.15029  0.73619  0.08979  1.0000
  N   N12       1.0  0.13773  0.72636  0.16520  1.0000
  C   C90       1.0  0.17047  0.77208  0.01238  1.0000
  C   C91       1.0  0.15491  0.72232  0.01158  1.0000
  H   H58       1.0  0.17591  0.79013  0.01199  1.0000
  H   H59       1.0  0.14908  0.70434  0.01059  1.0000
  C   C92       1.0  0.00252  0.97746  0.35730  1.0000
  C   C93       1.0  0.99258  0.99052  0.28037  1.0000
  C   C94       1.0  0.99237  0.01644  0.27941  1.0000
  C   C95       1.0  0.00197  0.02998  0.35557  1.0000
  N   N13       1.0  0.98436  0.02779  0.20157  1.0000
  C   C96       1.0  0.97667  0.01580  0.12515  1.0000
  C   C97       1.0  0.97690  0.99012  0.12611  1.0000
  N   N14       1.0  0.98478  0.97867  0.20342  1.0000
  C   C98       1.0  0.96951  0.02827  0.04530  1.0000
  C   C99       1.0  0.96993  0.97709  0.04732  1.0000
  H   H60       1.0  0.96977  0.04679  0.04386  1.0000
  H   H61       1.0  0.97032  0.95856  0.04742  1.0000
  C   C100      1.0  0.25161  0.47751  0.35123  1.0000
  C   C101      1.0  0.26060  0.49108  0.27455  1.0000
  C   C102      1.0  0.25949  0.51699  0.27499  1.0000
  C   C103      1.0  0.24915  0.53000  0.35160  1.0000
  N   N15       1.0  0.26662  0.52889  0.19764  1.0000
  C   C104      1.0  0.27458  0.51750  0.12033  1.0000
  C   C105      1.0  0.27562  0.49183  0.11969  1.0000
  N   N16       1.0  0.26867  0.47979  0.19661  1.0000
  C   C106      1.0  0.28063  0.53062  0.04116  1.0000
  C   C107      1.0  0.28260  0.47945  0.03948  1.0000
  H   H62       1.0  0.27963  0.54914  0.04116  1.0000
  H   H63       1.0  0.28288  0.46092  0.03802  1.0000
  C   C108      1.0  0.18443  0.17529  0.32456  1.0000
  N   N17       1.0  0.16300  0.15709  0.33654  1.0000
  C   C109      1.0  0.13158  0.16161  0.34739  1.0000
  N   N18       1.0  0.12236  0.18533  0.34929  1.0000
  C   C110      1.0  0.14266  0.20388  0.33529  1.0000
  N   N19       1.0  0.17323  0.19836  0.32246  1.0000
  C   C111      1.0  0.31839  0.83382  0.31895  1.0000
  N   N20       1.0  0.34022  0.85155  0.33367  1.0000
  C   C112      1.0  0.37139  0.84646  0.34664  1.0000
  N   N21       1.0  0.37980  0.82257  0.34941  1.0000
  C   C113      1.0  0.35896  0.80442  0.33399  1.0000
  N   N22       1.0  0.32872  0.81052  0.31801  1.0000
  C   C114      1.0  0.31920  0.17573  0.33395  1.0000
  N   N23       1.0  0.34110  0.15806  0.35149  1.0000
  C   C115      1.0  0.37282  0.16253  0.34532  1.0000
  N   N24       1.0  0.38210  0.18566  0.32615  1.0000
  C   C116      1.0  0.36129  0.20389  0.31414  1.0000
  N   N25       1.0  0.33052  0.19835  0.31786  1.0000
  C   C117      1.0  0.18435  0.83165  0.33982  1.0000
  N   N26       1.0  0.16303  0.84904  0.36619  1.0000
  C   C118      1.0  0.13128  0.84454  0.36754  1.0000
  N   N27       1.0  0.12204  0.82147  0.34754  1.0000
  C   C119      1.0  0.14223  0.80359  0.32454  1.0000
  N   N28       1.0  0.17297  0.80929  0.31965  1.0000
  C   C120      1.0  0.43147  0.67564  0.32878  1.0000
  N   N29       1.0  0.40979  0.65733  0.33385  1.0000
  C   C121      1.0  0.37816  0.66190  0.33915  1.0000
  N   N30       1.0  0.36897  0.68563  0.34167  1.0000
  C   C122      1.0  0.38968  0.70419  0.33634  1.0000
  N   N31       1.0  0.42045  0.69875  0.32952  1.0000
  C   C123      1.0  0.06952  0.33299  0.32270  1.0000
  N   N32       1.0  0.09142  0.35087  0.33391  1.0000
  C   C124      1.0  0.12275  0.34586  0.34447  1.0000
  N   N33       1.0  0.13133  0.32201  0.34714  1.0000
  C   C125      1.0  0.11028  0.30381  0.33648  1.0000
  N   N34       1.0  0.07979  0.30966  0.32368  1.0000
  C   C126      1.0  0.06619  0.67617  0.33966  1.0000
  N   N35       1.0  0.08783  0.65831  0.35701  1.0000
  C   C127      1.0  0.11957  0.66256  0.35104  1.0000
  N   N36       1.0  0.12916  0.68563  0.33205  1.0000
  C   C128      1.0  0.10860  0.70402  0.32007  1.0000
  N   N37       1.0  0.07775  0.69873  0.32373  1.0000
  C   C129      1.0  0.43540  0.33149  0.33521  1.0000
  N   N38       1.0  0.41398  0.34910  0.35876  1.0000
  C   C130      1.0  0.38215  0.34490  0.35631  1.0000
  N   N39       1.0  0.37288  0.32183  0.33608  1.0000
  C   C131      1.0  0.39316  0.30377  0.31579  1.0000
  N   N40       1.0  0.42400  0.30920  0.31428  1.0000
  C   C132      1.0  0.02949  0.09360  0.35660  1.0000
  N   N41       1.0  0.02916  0.06883  0.35484  1.0000
  C   C133      1.0  0.00166  0.05593  0.35677  1.0000
  N   N42       1.0  0.47383  0.06846  0.35751  1.0000
  C   C134      1.0  0.47312  0.09320  0.35397  1.0000
  N   N43       1.0  0.00117  0.10476  0.35467  1.0000
  C   C135      1.0  0.47421  0.91403  0.35731  1.0000
  N   N44       1.0  0.47497  0.93878  0.35320  1.0000
  C   C136      1.0  0.50255  0.95150  0.36005  1.0000
  N   N45       1.0  0.03012  0.93878  0.36710  1.0000
  C   C137      1.0  0.03061  0.91403  0.36339  1.0000
  N   N46       1.0  0.50240  0.90278  0.36036  1.0000
  C   C138      1.0  0.27597  0.59373  0.34656  1.0000
  N   N47       1.0  0.27569  0.56896  0.34460  1.0000
  C   C139      1.0  0.24841  0.55595  0.35362  1.0000
  N   N48       1.0  0.22057  0.56834  0.36078  1.0000
  C   C140      1.0  0.21961  0.59305  0.35531  1.0000
  N   N49       1.0  0.24754  0.60464  0.34982  1.0000
  C   C141      1.0  0.22488  0.41382  0.35438  1.0000
  N   N50       1.0  0.22503  0.43856  0.35151  1.0000
  C   C142      1.0  0.25242  0.45157  0.35286  1.0000
  N   N51       1.0  0.28034  0.43915  0.35448  1.0000
  C   C143      1.0  0.28128  0.41437  0.35193  1.0000
  N   N52       1.0  0.25325  0.40279  0.35325  1.0000
  C   C144      1.0  0.28595  0.17285  0.32877  1.0000
  C   C145      1.0  0.26819  0.15490  0.37471  1.0000
  C   C146      1.0  0.23447  0.15500  0.37281  1.0000
  C   C147      1.0  0.21756  0.17238  0.32162  1.0000
  N   N53       1.0  0.21903  0.14072  0.43289  1.0000
  C   C148      1.0  0.23368  0.12583  0.49187  1.0000
  C   C149      1.0  0.26689  0.12469  0.48967  1.0000
  N   N54       1.0  0.28264  0.13944  0.43252  1.0000
  C   C150      1.0  0.21692  0.11268  0.55727  1.0000
  C   C151      1.0  0.23342  0.09857  0.62043  1.0000
  C   C152      1.0  0.26635  0.09680  0.61629  1.0000
  C   C153      1.0  0.28301  0.10966  0.55023  1.0000
  H   H64       1.0  0.19298  0.11395  0.56094  1.0000
  H   H65       1.0  0.27819  0.08633  0.66168  1.0000
  H   H66       1.0  0.30679  0.10831  0.54688  1.0000
  C   C154      1.0  0.21738  0.83491  0.33085  1.0000
  C   C155      1.0  0.23552  0.85018  0.38706  1.0000
  C   C156      1.0  0.26901  0.85193  0.37880  1.0000
  C   C157      1.0  0.28539  0.83726  0.31592  1.0000
  N   N55       1.0  0.28490  0.86444  0.44344  1.0000
  C   C158      1.0  0.27087  0.87473  0.51583  1.0000
  C   C159      1.0  0.23816  0.87127  0.52651  1.0000
  N   N56       1.0  0.22199  0.85948  0.46189  1.0000
  C   C160      1.0  0.28792  0.88692  0.58316  1.0000
  C   C161      1.0  0.27226  0.89516  0.66077  1.0000
  C   C162      1.0  0.22313  0.87843  0.60587  1.0000
  H   H67       1.0  0.31158  0.88953  0.57654  1.0000
  H   H68       1.0  0.20040  0.87375  0.61599  1.0000
  C   C163      1.0  0.03294  0.67342  0.33451  1.0000
  C   C164      1.0  0.01520  0.65538  0.37992  1.0000
  C   C165      1.0  0.48149  0.65537  0.37797  1.0000
  C   C166      1.0  0.46460  0.67284  0.32722  1.0000
  N   N57       1.0  0.46609  0.64099  0.43788  1.0000
  C   C167      1.0  0.48090  0.62613  0.49680  1.0000
  C   C168      1.0  0.01413  0.62515  0.49464  1.0000
  N   N58       1.0  0.02975  0.63997  0.43759  1.0000
  C   C169      1.0  0.46435  0.61295  0.56254  1.0000
  C   C170      1.0  0.48106  0.59905  0.62593  1.0000
  C   C171      1.0  0.01401  0.59748  0.62178  1.0000
  C   C172      1.0  0.03049  0.61035  0.55542  1.0000
  H   H69       1.0  0.44041  0.61411  0.56650  1.0000
  H   H70       1.0  0.05432  0.60928  0.55238  1.0000
  C   C173      1.0  0.46853  0.33442  0.32927  1.0000
  C   C174      1.0  0.48640  0.34908  0.38836  1.0000
  C   C175      1.0  0.01990  0.35096  0.38144  1.0000
  C   C176      1.0  0.03659  0.33655  0.31840  1.0000
  N   N59       1.0  0.03545  0.36319  0.44746  1.0000
  C   C177      1.0  0.02106  0.37271  0.52079  1.0000
  C   C178      1.0  0.48853  0.36832  0.53152  1.0000
  N   N60       1.0  0.47263  0.35717  0.46478  1.0000
  C   C179      1.0  0.03775  0.38468  0.58937  1.0000
  C   C180      1.0  0.47359  0.37376  0.61297  1.0000
  H   H71       1.0  0.06127  0.38798  0.58267  1.0000
  H   H72       1.0  0.45146  0.36764  0.62430  1.0000
  C   C181      1.0  0.07974  0.14828  0.39802  1.0000
  C   C182      1.0  0.05474  0.13170  0.40007  1.0000
  H   H73       1.0  0.03504  0.13663  0.43501  1.0000
  H   H74       1.0  0.07677  0.16432  0.43152  1.0000
  C   C183      1.0  0.42366  0.85926  0.39709  1.0000
  C   C184      1.0  0.44875  0.87578  0.39927  1.0000
  H   H75       1.0  0.46843  0.87065  0.43388  1.0000
  H   H76       1.0  0.42656  0.84311  0.42991  1.0000
  C   C185      1.0  0.44599  0.10811  0.34933  1.0000
  C   C186      1.0  0.42016  0.10622  0.40908  1.0000
  C   C187      1.0  0.39608  0.12441  0.41113  1.0000
  C   C188      1.0  0.39627  0.14423  0.35017  1.0000
  N   N61       1.0  0.37720  0.12530  0.48489  1.0000
  C   C189      1.0  0.37927  0.10939  0.55420  1.0000
  C   C190      1.0  0.40147  0.09033  0.54845  1.0000
  N   N62       1.0  0.42122  0.08984  0.47720  1.0000
  C   C191      1.0  0.36187  0.11253  0.63377  1.0000
  C   C192      1.0  0.40482  0.07382  0.61978  1.0000
  H   H77       1.0  0.34706  0.12701  0.64063  1.0000
  H   H78       1.0  0.42107  0.06026  0.61616  1.0000
  C   C193      1.0  0.05746  0.89873  0.36339  1.0000
  C   C194      1.0  0.08410  0.90229  0.41876  1.0000
  C   C195      1.0  0.10820  0.88417  0.42666  1.0000
  C   C196      1.0  0.10754  0.86276  0.37307  1.0000
  N   N63       1.0  0.12745  0.88567  0.49966  1.0000
  C   C197      1.0  0.12585  0.90388  0.56133  1.0000
  C   C198      1.0  0.10396  0.92285  0.54767  1.0000
  N   N64       1.0  0.08368  0.92089  0.47836  1.0000
  C   C199      1.0  0.14284  0.90328  0.64240  1.0000
  C   C200      1.0  0.10073  0.94168  0.61080  1.0000
  H   H79       1.0  0.15562  0.88844  0.65878  1.0000
  H   H80       1.0  0.08432  0.95499  0.60163  1.0000
  C   C201      1.0  0.32565  0.64892  0.38419  1.0000
  C   C202      1.0  0.30071  0.63233  0.38587  1.0000
  H   H81       1.0  0.28088  0.63744  0.41987  1.0000
  H   H82       1.0  0.32241  0.66502  0.41703  1.0000
  C   C203      1.0  0.17502  0.35878  0.39411  1.0000
  C   C204      1.0  0.19995  0.37544  0.39670  1.0000
  H   H83       1.0  0.21975  0.37042  0.43101  1.0000
  H   H84       1.0  0.17807  0.34262  0.42675  1.0000
  C   C205      1.0  0.19248  0.60798  0.35267  1.0000
  C   C206      1.0  0.16717  0.60630  0.41423  1.0000
  C   C207      1.0  0.14300  0.62442  0.41679  1.0000
  C   C208      1.0  0.14276  0.64406  0.35500  1.0000
  N   N65       1.0  0.12447  0.62534  0.49125  1.0000
  C   C209      1.0  0.12710  0.60962  0.56105  1.0000
  C   C210      1.0  0.14968  0.59081  0.55544  1.0000
  N   N66       1.0  0.16896  0.59022  0.48317  1.0000
  C   C211      1.0  0.10990  0.61276  0.64096  1.0000
  C   C212      1.0  0.15390  0.57467  0.62763  1.0000
  H   H85       1.0  0.09478  0.62705  0.64767  1.0000
  H   H86       1.0  0.17061  0.56138  0.62441  1.0000
  C   C213      1.0  0.30835  0.39927  0.35064  1.0000
  C   C214      1.0  0.33512  0.40290  0.40552  1.0000
  C   C215      1.0  0.35937  0.38487  0.41285  1.0000
  C   C216      1.0  0.35851  0.36325  0.36046  1.0000
  N   N67       1.0  0.37935  0.38673  0.48406  1.0000
  C   C217      1.0  0.37811  0.40506  0.54518  1.0000
  C   C218      1.0  0.35561  0.42366  0.53324  1.0000
  N   N68       1.0  0.33485  0.42152  0.46511  1.0000
  C   C219      1.0  0.39638  0.40499  0.62390  1.0000
  C   C220      1.0  0.35271  0.44246  0.59655  1.0000
  H   H87       1.0  0.41043  0.39076  0.63761  1.0000
  H   H88       1.0  0.33613  0.45559  0.58832  1.0000
  C   C221      1.0  0.11899  0.27914  0.33940  1.0000
  C   C222      1.0  0.11237  0.26443  0.41496  1.0000
  C   C223      1.0  0.11964  0.23922  0.41376  1.0000
  C   C224      1.0  0.13342  0.22852  0.33684  1.0000
  N   N69       1.0  0.11436  0.22614  0.48980  1.0000
  C   C225      1.0  0.10242  0.23583  0.56622  1.0000
  C   C226      1.0  0.09498  0.26087  0.56719  1.0000
  N   N70       1.0  0.10027  0.27403  0.49175  1.0000
  C   C227      1.0  0.09798  0.22173  0.64397  1.0000
  C   C228      1.0  0.08314  0.27162  0.64595  1.0000
  H   H89       1.0  0.10351  0.20369  0.64387  1.0000
  H   H90       1.0  0.07795  0.28972  0.64732  1.0000
  C   C229      1.0  0.38068  0.72879  0.33953  1.0000
  C   C230      1.0  0.38755  0.74347  0.41495  1.0000
  C   C231      1.0  0.38082  0.76877  0.41368  1.0000
  C   C232      1.0  0.36737  0.77959  0.33646  1.0000
  N   N71       1.0  0.38632  0.78173  0.48988  1.0000
  C   C233      1.0  0.39798  0.77186  0.56640  1.0000
  C   C234      1.0  0.40489  0.74674  0.56728  1.0000
  N   N72       1.0  0.39938  0.73369  0.49176  1.0000
  C   C235      1.0  0.40261  0.78582  0.64442  1.0000
  C   C236      1.0  0.41639  0.73575  0.64599  1.0000
  H   H91       1.0  0.39747  0.80392  0.64449  1.0000
  H   H92       1.0  0.42117  0.71759  0.64719  1.0000
  C   C237      1.0  0.36216  0.24350  0.38417  1.0000
  C   C238      1.0  0.36893  0.26842  0.38341  1.0000
  H   H93       1.0  0.36374  0.27843  0.43936  1.0000
  H   H94       1.0  0.35170  0.23629  0.44002  1.0000
  C   C239      1.0  0.41975  0.23300  0.59425  1.0000
  C   C240      1.0  0.42698  0.25790  0.59392  1.0000
  H   H95       1.0  0.42314  0.22290  0.53757  1.0000
  H   H96       1.0  0.43560  0.26583  0.53699  1.0000
  C   C241      1.0  0.11765  0.76825  0.39138  1.0000
  C   C242      1.0  0.11032  0.74344  0.39131  1.0000
  H   H97       1.0  0.09969  0.73623  0.44691  1.0000
  H   H98       1.0  0.11264  0.77819  0.44765  1.0000
  C   C243      1.0  0.17483  0.75816  0.60085  1.0000
  C   C244      1.0  0.16707  0.73335  0.60043  1.0000
  H   H99       1.0  0.18353  0.76611  0.54407  1.0000
  H   H100      1.0  0.17015  0.72334  0.54337  1.0000
  C   C245      1.0  0.01316  0.01678  0.43045  1.0000
  C   C246      1.0  0.01348  0.99115  0.43125  1.0000
  H   H101      1.0  0.02129  0.98247  0.48770  1.0000
  H   H102      1.0  0.02079  0.02583  0.48631  1.0000
  C   C247      1.0  0.96253  0.01516  0.63337  1.0000
  C   C248      1.0  0.96265  0.98964  0.63444  1.0000
  H   H103      1.0  0.95758  0.02417  0.57515  1.0000
  H   H104      1.0  0.95770  0.98021  0.57711  1.0000
  C   C249      1.0  0.23860  0.51623  0.42581  1.0000
  C   C250      1.0  0.23984  0.49062  0.42563  1.0000
  H   H105      1.0  0.23238  0.48152  0.48156  1.0000
  H   H106      1.0  0.23043  0.52486  0.48195  1.0000
  C   C251      1.0  0.28760  0.51817  0.62791  1.0000
  C   C252      1.0  0.28835  0.49267  0.62697  1.0000
  H   H107      1.0  0.29176  0.52765  0.57020  1.0000
  H   H108      1.0  0.29280  0.48375  0.56826  1.0000
  C   C253      1.0  0.73557  0.18977  0.27471  1.0000
  C   C254      1.0  0.76843  0.18998  0.27826  1.0000
  H   H109      1.0  0.77944  0.20313  0.24141  1.0000
  H   H110      1.0  0.72487  0.20278  0.23639  1.0000
  H   H111      1.0  0.72159  0.08946  0.00278  1.0000
  C   C255      1.0  0.76719  0.82146  0.26212  1.0000
  C   C256      1.0  0.73432  0.82057  0.26845  1.0000
  H   H112      1.0  0.72283  0.80892  0.22625  1.0000
  H   H113      1.0  0.77787  0.81016  0.21688  1.0000
  C   C257      1.0  0.74010  0.89045  0.00659  1.0000
  H   H114      1.0  0.78420  0.90422  0.04273  1.0000
  H   H115      1.0  0.72913  0.89564  0.06454  1.0000
  C   C258      1.0  0.98260  0.69043  0.28117  1.0000
  C   C259      1.0  0.51544  0.69070  0.28476  1.0000
  H   H116      1.0  0.52645  0.70396  0.24842  1.0000
  H   H117      1.0  0.97188  0.70349  0.24305  1.0000
  H   H118      1.0  0.96942  0.59002  0.00879  1.0000
  H   H119      1.0  0.52598  0.58723  0.00088  1.0000
  C   C260      1.0  0.51872  0.32097  0.26292  1.0000
  C   C261      1.0  0.98580  0.32030  0.26695  1.0000
  H   H120      1.0  0.97452  0.30896  0.22312  1.0000
  H   H121      1.0  0.52966  0.30984  0.21761  1.0000
  C   C262      1.0  0.52195  0.39171  0.00172  1.0000
  C   C263      1.0  0.99020  0.38565  0.01475  1.0000
  H   H122      1.0  0.53360  0.40058  0.05138  1.0000
  H   H123      1.0  0.97933  0.38964  0.07411  1.0000
  C   C264      1.0  0.55656  0.10870  0.35807  1.0000
  C   C265      1.0  0.58460  0.10355  0.31041  1.0000
  C   C266      1.0  0.60999  0.12061  0.30686  1.0000
  C   C267      1.0  0.60830  0.14317  0.35309  1.0000
  N   N73       1.0  0.63298  0.11662  0.24487  1.0000
  C   C268      1.0  0.63326  0.09746  0.18764  1.0000
  C   C269      1.0  0.60831  0.08053  0.19252  1.0000
  N   N74       1.0  0.58518  0.08440  0.25307  1.0000
  C   C270      1.0  0.65604  0.09518  0.11959  1.0000
  C   C271      1.0  0.65353  0.07630  0.05629  1.0000
  C   C272      1.0  0.62884  0.05941  0.06184  1.0000
  C   C273      1.0  0.60628  0.06139  0.13037  1.0000
  H   H124      1.0  0.67360  0.10773  0.11362  1.0000
  H   H125      1.0  0.66928  0.07500  0.00494  1.0000
  H   H126      1.0  0.62698  0.04594  0.01503  1.0000
  H   H127      1.0  0.58782  0.04954  0.13244  1.0000
  C   C274      1.0  0.94712  0.89892  0.35781  1.0000
  C   C275      1.0  0.91893  0.90441  0.31147  1.0000
  C   C276      1.0  0.89361  0.88730  0.30758  1.0000
  C   C277      1.0  0.89510  0.86460  0.35279  1.0000
  N   N75       1.0  0.87067  0.89137  0.24591  1.0000
  C   C278      1.0  0.87009  0.91079  0.19031  1.0000
  C   C279      1.0  0.89443  0.92815  0.19675  1.0000
  N   N76       1.0  0.91787  0.92405  0.25629  1.0000
  C   C280      1.0  0.84730  0.91283  0.12262  1.0000
  C   C281      1.0  0.84856  0.93229  0.06158  1.0000
  C   C282      1.0  0.87239  0.94988  0.06915  1.0000
  C   C283      1.0  0.89528  0.94789  0.13695  1.0000
  H   H128      1.0  0.83073  0.89962  0.11590  1.0000
  H   H129      1.0  0.83236  0.93354  0.01118  1.0000
  H   H130      1.0  0.87339  0.96389  0.02435  1.0000
  H   H131      1.0  0.91298  0.96034  0.14072  1.0000
  C   C284      1.0  0.92292  0.14628  0.29376  1.0000
  C   C285      1.0  0.94710  0.12899  0.29418  1.0000
  H   H132      1.0  0.96549  0.13160  0.25091  1.0000
  H   H133      1.0  0.92485  0.16029  0.24902  1.0000
  C   C286      1.0  0.86549  0.09613  0.03872  1.0000
  C   C287      1.0  0.88670  0.07666  0.03139  1.0000
  H   H134      1.0  0.85295  0.09853  0.09656  1.0000
  H   H135      1.0  0.88960  0.06497  0.08397  1.0000
  C   C288      1.0  0.58035  0.85951  0.31921  1.0000
  C   C289      1.0  0.55606  0.87661  0.31563  1.0000
  H   H136      1.0  0.53746  0.87292  0.27417  1.0000
  H   H137      1.0  0.57802  0.84470  0.27834  1.0000
  C   C290      1.0  0.63949  0.92191  0.03955  1.0000
  C   C291      1.0  0.61880  0.94128  0.02314  1.0000
  H   H138      1.0  0.65141  0.92100  0.09902  1.0000
  H   H139      1.0  0.61584  0.95450  0.07048  1.0000
  C   C292      1.0  0.80283  0.60908  0.34578  1.0000
  C   C293      1.0  0.83136  0.60368  0.30090  1.0000
  C   C294      1.0  0.85672  0.62079  0.29749  1.0000
  C   C295      1.0  0.85460  0.64361  0.34170  1.0000
  N   N77       1.0  0.88032  0.61641  0.23782  1.0000
  C   C296      1.0  0.88127  0.59673  0.18309  1.0000
  C   C297      1.0  0.85658  0.57959  0.18883  1.0000
  N   N78       1.0  0.83275  0.58390  0.24673  1.0000
  C   C298      1.0  0.90460  0.59398  0.11682  1.0000
  C   C299      1.0  0.90293  0.57439  0.05627  1.0000
  C   C300      1.0  0.87864  0.55720  0.06318  1.0000
  C   C301      1.0  0.85555  0.55967  0.13001  1.0000
  H   H140      1.0  0.92195  0.60667  0.11008  1.0000
  H   H141      1.0  0.91908  0.57269  0.00613  1.0000
  H   H142      1.0  0.87746  0.54314  0.01865  1.0000
  H   H143      1.0  0.83753  0.54749  0.13346  1.0000
  C   C302      1.0  0.69796  0.39860  0.35585  1.0000
  C   C303      1.0  0.66985  0.40393  0.30892  1.0000
  C   C304      1.0  0.64466  0.38673  0.30488  1.0000
  C   C305      1.0  0.64639  0.36403  0.34992  1.0000
  N   N79       1.0  0.62177  0.39066  0.24294  1.0000
  C   C306      1.0  0.62122  0.40998  0.18687  1.0000
  C   C307      1.0  0.64559  0.42734  0.19275  1.0000
  N   N80       1.0  0.66888  0.42340  0.25288  1.0000
  C   C308      1.0  0.59854  0.41186  0.11884  1.0000
  C   C309      1.0  0.59987  0.43113  0.05704  1.0000
  C   C310      1.0  0.62383  0.44864  0.06380  1.0000
  C   C311      1.0  0.64672  0.44681  0.13173  1.0000
  H   H144      1.0  0.58207  0.39859  0.11225  1.0000
  H   H145      1.0  0.58372  0.43222  0.00644  1.0000
  H   H146      1.0  0.62500  0.46243  0.01813  1.0000
  H   H147      1.0  0.66471  0.45907  0.13434  1.0000
  C   C312      1.0  0.66881  0.64585  0.29630  1.0000
  C   C313      1.0  0.69292  0.62854  0.29575  1.0000
  H   H148      1.0  0.71079  0.63093  0.25056  1.0000
  H   H149      1.0  0.67031  0.65965  0.25054  1.0000
  C   C314      1.0  0.61428  0.59671  0.04665  1.0000
  C   C315      1.0  0.63604  0.57759  0.03972  1.0000
  H   H150      1.0  0.60195  0.59916  0.10484  1.0000
  H   H151      1.0  0.63952  0.56622  0.09294  1.0000
  C   C316      1.0  0.83116  0.35992  0.30728  1.0000
  C   C317      1.0  0.80688  0.37705  0.30352  1.0000
  H   H152      1.0  0.78811  0.37325  0.26285  1.0000
  H   H153      1.0  0.82866  0.34496  0.26728  1.0000
  C   C318      1.0  0.89313  0.42348  0.02163  1.0000
  C   C319      1.0  0.87154  0.44239  0.00742  1.0000
  H   H154      1.0  0.90601  0.42292  0.07948  1.0000
  H   H155      1.0  0.86881  0.45563  0.05476  1.0000
  C   C320      1.0  0.64065  0.24358  0.26287  1.0000
  C   C321      1.0  0.63327  0.26844  0.26371  1.0000
  H   H156      1.0  0.63818  0.27863  0.20802  1.0000
  H   H157      1.0  0.65098  0.23645  0.20671  1.0000
  C   C322      1.0  0.58630  0.23261  0.05601  1.0000
  C   C323      1.0  0.57890  0.25748  0.05699  1.0000
  H   H158      1.0  0.58330  0.22243  0.11271  1.0000
  H   H159      1.0  0.57053  0.26531  0.11441  1.0000
  C   C324      1.0  0.85987  0.76457  0.26260  1.0000
  C   C325      1.0  0.86666  0.73961  0.26370  1.0000
  H   H160      1.0  0.86175  0.72947  0.20787  1.0000
  H   H161      1.0  0.84986  0.77180  0.20614  1.0000
  C   C326      1.0  0.91394  0.77473  0.05647  1.0000
  C   C327      1.0  0.92082  0.74976  0.05726  1.0000
  H   H162      1.0  0.91709  0.78481  0.11333  1.0000
  H   H163      1.0  0.92893  0.74177  0.11467  1.0000
  C   C328      1.0  0.88376  0.27927  0.30880  1.0000
  C   C329      1.0  0.89131  0.26454  0.23391  1.0000
  C   C330      1.0  0.88418  0.23929  0.23438  1.0000
  C   C331      1.0  0.87009  0.22854  0.31061  1.0000
  N   N81       1.0  0.89019  0.22620  0.15887  1.0000
  C   C332      1.0  0.90264  0.23601  0.08328  1.0000
  C   C333      1.0  0.90991  0.26109  0.08291  1.0000
  N   N82       1.0  0.90394  0.27422  0.15801  1.0000
  C   C334      1.0  0.90770  0.22200  0.00560  1.0000
  C   C335      1.0  0.92219  0.27196  0.00492  1.0000
  H   H164      1.0  0.90226  0.20395  0.00516  1.0000
  H   H165      1.0  0.92722  0.29008  0.00397  1.0000
  C   C336      1.0  0.61783  0.72858  0.31714  1.0000
  C   C337      1.0  0.63214  0.73933  0.24124  1.0000
  C   C338      1.0  0.63985  0.76449  0.24161  1.0000
  C   C339      1.0  0.63275  0.77911  0.31718  1.0000
  N   N83       1.0  0.65255  0.77419  0.16585  1.0000
  C   C340      1.0  0.65810  0.76118  0.09019  1.0000
  C   C341      1.0  0.65029  0.73619  0.08979  1.0000
  N   N84       1.0  0.63773  0.72636  0.16520  1.0000
  C   C342      1.0  0.67047  0.77208  0.01238  1.0000
  C   C343      1.0  0.65491  0.72232  0.01158  1.0000
  H   H166      1.0  0.67591  0.79013  0.01199  1.0000
  H   H167      1.0  0.64907  0.70434  0.01059  1.0000
  C   C344      1.0  0.50252  0.97746  0.35730  1.0000
  C   C345      1.0  0.49258  0.99052  0.28037  1.0000
  C   C346      1.0  0.49237  0.01644  0.27941  1.0000
  C   C347      1.0  0.50197  0.02998  0.35557  1.0000
  N   N85       1.0  0.48436  0.02779  0.20157  1.0000
  C   C348      1.0  0.47668  0.01580  0.12515  1.0000
  C   C349      1.0  0.47690  0.99012  0.12611  1.0000
  N   N86       1.0  0.48478  0.97867  0.20342  1.0000
  C   C350      1.0  0.46951  0.02827  0.04530  1.0000
  C   C351      1.0  0.46993  0.97709  0.04732  1.0000
  H   H168      1.0  0.46977  0.04679  0.04386  1.0000
  H   H169      1.0  0.47032  0.95856  0.04742  1.0000
  C   C352      1.0  0.75161  0.47751  0.35123  1.0000
  C   C353      1.0  0.76060  0.49108  0.27455  1.0000
  C   C354      1.0  0.75949  0.51699  0.27499  1.0000
  C   C355      1.0  0.74915  0.53000  0.35160  1.0000
  N   N87       1.0  0.76662  0.52889  0.19764  1.0000
  C   C356      1.0  0.77458  0.51750  0.12033  1.0000
  C   C357      1.0  0.77562  0.49183  0.11969  1.0000
  N   N88       1.0  0.76867  0.47979  0.19661  1.0000
  C   C358      1.0  0.78063  0.53062  0.04116  1.0000
  C   C359      1.0  0.78260  0.47945  0.03948  1.0000
  H   H170      1.0  0.77963  0.54914  0.04116  1.0000
  H   H171      1.0  0.78288  0.46092  0.03802  1.0000
  C   C360      1.0  0.68443  0.17529  0.32456  1.0000
  N   N89       1.0  0.66300  0.15709  0.33654  1.0000
  C   C361      1.0  0.63158  0.16161  0.34739  1.0000
  N   N90       1.0  0.62236  0.18533  0.34929  1.0000
  C   C362      1.0  0.64266  0.20388  0.33529  1.0000
  N   N91       1.0  0.67323  0.19836  0.32246  1.0000
  C   C363      1.0  0.81839  0.83382  0.31895  1.0000
  N   N92       1.0  0.84022  0.85155  0.33367  1.0000
  C   C364      1.0  0.87140  0.84646  0.34664  1.0000
  N   N93       1.0  0.87980  0.82257  0.34941  1.0000
  C   C365      1.0  0.85896  0.80442  0.33399  1.0000
  N   N94       1.0  0.82872  0.81052  0.31801  1.0000
  C   C366      1.0  0.81920  0.17573  0.33395  1.0000
  N   N95       1.0  0.84110  0.15806  0.35149  1.0000
  C   C367      1.0  0.87282  0.16253  0.34532  1.0000
  N   N96       1.0  0.88210  0.18566  0.32615  1.0000
  C   C368      1.0  0.86129  0.20389  0.31414  1.0000
  N   N97       1.0  0.83052  0.19835  0.31786  1.0000
  C   C369      1.0  0.68435  0.83165  0.33982  1.0000
  N   N98       1.0  0.66304  0.84904  0.36619  1.0000
  C   C370      1.0  0.63128  0.84454  0.36754  1.0000
  N   N99       1.0  0.62204  0.82147  0.34754  1.0000
  C   C371      1.0  0.64223  0.80359  0.32454  1.0000
  N   N100      1.0  0.67297  0.80929  0.31965  1.0000
  C   C372      1.0  0.93147  0.67564  0.32878  1.0000
  N   N101      1.0  0.90979  0.65733  0.33385  1.0000
  C   C373      1.0  0.87816  0.66190  0.33915  1.0000
  N   N102      1.0  0.86898  0.68563  0.34167  1.0000
  C   C374      1.0  0.88968  0.70419  0.33634  1.0000
  N   N103      1.0  0.92045  0.69875  0.32952  1.0000
  C   C375      1.0  0.56952  0.33299  0.32270  1.0000
  N   N104      1.0  0.59142  0.35087  0.33391  1.0000
  C   C376      1.0  0.62274  0.34586  0.34447  1.0000
  N   N105      1.0  0.63133  0.32201  0.34714  1.0000
  C   C377      1.0  0.61028  0.30381  0.33648  1.0000
  N   N106      1.0  0.57979  0.30966  0.32368  1.0000
  C   C378      1.0  0.56619  0.67617  0.33966  1.0000
  N   N107      1.0  0.58783  0.65831  0.35701  1.0000
  C   C379      1.0  0.61957  0.66256  0.35104  1.0000
  N   N108      1.0  0.62916  0.68563  0.33205  1.0000
  C   C380      1.0  0.60860  0.70402  0.32007  1.0000
  N   N109      1.0  0.57775  0.69873  0.32373  1.0000
  C   C381      1.0  0.93540  0.33149  0.33521  1.0000
  N   N110      1.0  0.91399  0.34910  0.35876  1.0000
  C   C382      1.0  0.88215  0.34490  0.35631  1.0000
  N   N111      1.0  0.87288  0.32183  0.33608  1.0000
  C   C383      1.0  0.89316  0.30377  0.31579  1.0000
  N   N112      1.0  0.92400  0.30920  0.31428  1.0000
  C   C384      1.0  0.52949  0.09360  0.35660  1.0000
  N   N113      1.0  0.52916  0.06883  0.35484  1.0000
  C   C385      1.0  0.50166  0.05593  0.35677  1.0000
  N   N114      1.0  0.97383  0.06846  0.35751  1.0000
  C   C386      1.0  0.97312  0.09320  0.35397  1.0000
  N   N115      1.0  0.50117  0.10476  0.35467  1.0000
  C   C387      1.0  0.97421  0.91403  0.35731  1.0000
  N   N116      1.0  0.97496  0.93878  0.35320  1.0000
  C   C388      1.0  0.00256  0.95150  0.36005  1.0000
  N   N117      1.0  0.53012  0.93878  0.36710  1.0000
  C   C389      1.0  0.53061  0.91403  0.36339  1.0000
  N   N118      1.0  0.00240  0.90278  0.36036  1.0000
  C   C390      1.0  0.77597  0.59373  0.34656  1.0000
  N   N119      1.0  0.77569  0.56896  0.34460  1.0000
  C   C391      1.0  0.74841  0.55595  0.35362  1.0000
  N   N120      1.0  0.72057  0.56834  0.36078  1.0000
  C   C392      1.0  0.71961  0.59305  0.35531  1.0000
  N   N121      1.0  0.74754  0.60464  0.34982  1.0000
  C   C393      1.0  0.72488  0.41382  0.35438  1.0000
  N   N122      1.0  0.72503  0.43856  0.35151  1.0000
  C   C394      1.0  0.75242  0.45157  0.35286  1.0000
  N   N123      1.0  0.78034  0.43915  0.35448  1.0000
  C   C395      1.0  0.78128  0.41437  0.35193  1.0000
  N   N124      1.0  0.75325  0.40279  0.35325  1.0000
  C   C396      1.0  0.78595  0.17285  0.32877  1.0000
  C   C397      1.0  0.76820  0.15490  0.37471  1.0000
  C   C398      1.0  0.73447  0.15500  0.37281  1.0000
  C   C399      1.0  0.71756  0.17238  0.32162  1.0000
  N   N125      1.0  0.71903  0.14072  0.43289  1.0000
  C   C400      1.0  0.73368  0.12583  0.49187  1.0000
  C   C401      1.0  0.76689  0.12469  0.48967  1.0000
  N   N126      1.0  0.78264  0.13944  0.43252  1.0000
  C   C402      1.0  0.71692  0.11268  0.55727  1.0000
  C   C403      1.0  0.73341  0.09857  0.62043  1.0000
  C   C404      1.0  0.76635  0.09680  0.61629  1.0000
  C   C405      1.0  0.78301  0.10966  0.55023  1.0000
  H   H172      1.0  0.69298  0.11395  0.56094  1.0000
  H   H173      1.0  0.77819  0.08633  0.66168  1.0000
  H   H174      1.0  0.80680  0.10831  0.54688  1.0000
  C   C406      1.0  0.71738  0.83491  0.33085  1.0000
  C   C407      1.0  0.73553  0.85018  0.38706  1.0000
  C   C408      1.0  0.76901  0.85193  0.37880  1.0000
  C   C409      1.0  0.78539  0.83726  0.31592  1.0000
  N   N127      1.0  0.78490  0.86444  0.44344  1.0000
  C   C410      1.0  0.77087  0.87473  0.51583  1.0000
  C   C411      1.0  0.73816  0.87127  0.52651  1.0000
  N   N128      1.0  0.72200  0.85948  0.46189  1.0000
  C   C412      1.0  0.78792  0.88692  0.58316  1.0000
  C   C413      1.0  0.77226  0.89516  0.66077  1.0000
  C   C414      1.0  0.72313  0.87843  0.60587  1.0000
  H   H175      1.0  0.81159  0.88953  0.57654  1.0000
  H   H176      1.0  0.70040  0.87375  0.61599  1.0000
  C   C415      1.0  0.53294  0.67342  0.33451  1.0000
  C   C416      1.0  0.51520  0.65538  0.37992  1.0000
  C   C417      1.0  0.98149  0.65537  0.37797  1.0000
  C   C418      1.0  0.96460  0.67284  0.32722  1.0000
  N   N129      1.0  0.96610  0.64099  0.43788  1.0000
  C   C419      1.0  0.98090  0.62613  0.49680  1.0000
  C   C420      1.0  0.51414  0.62515  0.49464  1.0000
  N   N130      1.0  0.52975  0.63997  0.43759  1.0000
  C   C421      1.0  0.96435  0.61295  0.56254  1.0000
  C   C422      1.0  0.98106  0.59905  0.62593  1.0000
  C   C423      1.0  0.51401  0.59748  0.62178  1.0000
  C   C424      1.0  0.53049  0.61035  0.55542  1.0000
  H   H177      1.0  0.94041  0.61411  0.56650  1.0000
  H   H178      1.0  0.55432  0.60928  0.55238  1.0000
  C   C425      1.0  0.96854  0.33442  0.32927  1.0000
  C   C426      1.0  0.98640  0.34908  0.38836  1.0000
  C   C427      1.0  0.51990  0.35096  0.38144  1.0000
  C   C428      1.0  0.53659  0.33655  0.31840  1.0000
  N   N131      1.0  0.53545  0.36319  0.44746  1.0000
  C   C429      1.0  0.52106  0.37271  0.52079  1.0000
  C   C430      1.0  0.98853  0.36832  0.53152  1.0000
  N   N132      1.0  0.97263  0.35717  0.46478  1.0000
  C   C431      1.0  0.53775  0.38468  0.58937  1.0000
  C   C432      1.0  0.97359  0.37376  0.61297  1.0000
  H   H179      1.0  0.56127  0.38798  0.58267  1.0000
  H   H180      1.0  0.95146  0.36764  0.62430  1.0000
  C   C433      1.0  0.57974  0.14828  0.39802  1.0000
  C   C434      1.0  0.55474  0.13170  0.40007  1.0000
  H   H181      1.0  0.53504  0.13663  0.43501  1.0000
  H   H182      1.0  0.57677  0.16432  0.43152  1.0000
  C   C435      1.0  0.92366  0.85926  0.39709  1.0000
  C   C436      1.0  0.94875  0.87578  0.39927  1.0000
  H   H183      1.0  0.96843  0.87065  0.43388  1.0000
  H   H184      1.0  0.92656  0.84311  0.42991  1.0000
  C   C437      1.0  0.94599  0.10811  0.34933  1.0000
  C   C438      1.0  0.92016  0.10622  0.40908  1.0000
  C   C439      1.0  0.89608  0.12441  0.41113  1.0000
  C   C440      1.0  0.89627  0.14423  0.35017  1.0000
  N   N133      1.0  0.87720  0.12530  0.48489  1.0000
  C   C441      1.0  0.87927  0.10939  0.55420  1.0000
  C   C442      1.0  0.90146  0.09033  0.54845  1.0000
  N   N134      1.0  0.92122  0.08984  0.47720  1.0000
  C   C443      1.0  0.86187  0.11253  0.63377  1.0000
  C   C444      1.0  0.90482  0.07382  0.61978  1.0000
  H   H185      1.0  0.84706  0.12701  0.64063  1.0000
  H   H186      1.0  0.92107  0.06026  0.61616  1.0000
  C   C445      1.0  0.55746  0.89873  0.36339  1.0000
  C   C446      1.0  0.58410  0.90229  0.41876  1.0000
  C   C447      1.0  0.60820  0.88417  0.42666  1.0000
  C   C448      1.0  0.60754  0.86276  0.37307  1.0000
  N   N135      1.0  0.62745  0.88567  0.49966  1.0000
  C   C449      1.0  0.62585  0.90388  0.56133  1.0000
  C   C450      1.0  0.60396  0.92285  0.54767  1.0000
  N   N136      1.0  0.58369  0.92089  0.47836  1.0000
  C   C451      1.0  0.64284  0.90328  0.64240  1.0000
  C   C452      1.0  0.60073  0.94168  0.61080  1.0000
  H   H187      1.0  0.65562  0.88844  0.65878  1.0000
  H   H188      1.0  0.58432  0.95499  0.60163  1.0000
  C   C453      1.0  0.82566  0.64892  0.38419  1.0000
  C   C454      1.0  0.80071  0.63233  0.38587  1.0000
  H   H189      1.0  0.78088  0.63744  0.41987  1.0000
  H   H190      1.0  0.82241  0.66502  0.41703  1.0000
  C   C455      1.0  0.67502  0.35878  0.39411  1.0000
  C   C456      1.0  0.69995  0.37544  0.39670  1.0000
  H   H191      1.0  0.71975  0.37042  0.43101  1.0000
  H   H192      1.0  0.67807  0.34262  0.42675  1.0000
  C   C457      1.0  0.69248  0.60798  0.35267  1.0000
  C   C458      1.0  0.66717  0.60630  0.41423  1.0000
  C   C459      1.0  0.64300  0.62442  0.41679  1.0000
  C   C460      1.0  0.64276  0.64406  0.35500  1.0000
  N   N137      1.0  0.62447  0.62534  0.49125  1.0000
  C   C461      1.0  0.62710  0.60962  0.56105  1.0000
  C   C462      1.0  0.64968  0.59081  0.55544  1.0000
  N   N138      1.0  0.66896  0.59022  0.48317  1.0000
  C   C463      1.0  0.60990  0.61276  0.64096  1.0000
  C   C464      1.0  0.65390  0.57467  0.62763  1.0000
  H   H193      1.0  0.59478  0.62705  0.64767  1.0000
  H   H194      1.0  0.67061  0.56138  0.62441  1.0000
  C   C465      1.0  0.80835  0.39927  0.35064  1.0000
  C   C466      1.0  0.83512  0.40290  0.40552  1.0000
  C   C467      1.0  0.85937  0.38487  0.41285  1.0000
  C   C468      1.0  0.85851  0.36325  0.36046  1.0000
  N   N139      1.0  0.87935  0.38673  0.48406  1.0000
  C   C469      1.0  0.87811  0.40506  0.54518  1.0000
  C   C470      1.0  0.85561  0.42366  0.53324  1.0000
  N   N140      1.0  0.83485  0.42152  0.46511  1.0000
  C   C471      1.0  0.89638  0.40499  0.62390  1.0000
  C   C472      1.0  0.85271  0.44246  0.59655  1.0000
  H   H195      1.0  0.91043  0.39076  0.63761  1.0000
  H   H196      1.0  0.83613  0.45559  0.58832  1.0000
  C   C473      1.0  0.61899  0.27914  0.33940  1.0000
  C   C474      1.0  0.61237  0.26443  0.41496  1.0000
  C   C475      1.0  0.61964  0.23922  0.41376  1.0000
  C   C476      1.0  0.63342  0.22852  0.33684  1.0000
  N   N141      1.0  0.61436  0.22614  0.48980  1.0000
  C   C477      1.0  0.60242  0.23583  0.56622  1.0000
  C   C478      1.0  0.59498  0.26087  0.56719  1.0000
  N   N142      1.0  0.60028  0.27403  0.49175  1.0000
  C   C479      1.0  0.59798  0.22173  0.64397  1.0000
  C   C480      1.0  0.58314  0.27162  0.64595  1.0000
  H   H197      1.0  0.60350  0.20369  0.64387  1.0000
  H   H198      1.0  0.57795  0.28972  0.64732  1.0000
  C   C481      1.0  0.88068  0.72879  0.33953  1.0000
  C   C482      1.0  0.88755  0.74347  0.41495  1.0000
  C   C483      1.0  0.88083  0.76877  0.41368  1.0000
  C   C484      1.0  0.86738  0.77959  0.33646  1.0000
  N   N143      1.0  0.88632  0.78173  0.48988  1.0000
  C   C485      1.0  0.89798  0.77186  0.56640  1.0000
  C   C486      1.0  0.90489  0.74674  0.56728  1.0000
  N   N144      1.0  0.89938  0.73369  0.49176  1.0000
  C   C487      1.0  0.90261  0.78582  0.64442  1.0000
  C   C488      1.0  0.91639  0.73575  0.64599  1.0000
  H   H199      1.0  0.89747  0.80392  0.64449  1.0000
  H   H200      1.0  0.92117  0.71759  0.64719  1.0000
  C   C489      1.0  0.86216  0.24350  0.38417  1.0000
  C   C490      1.0  0.86893  0.26842  0.38341  1.0000
  H   H201      1.0  0.86374  0.27843  0.43936  1.0000
  H   H202      1.0  0.85170  0.23629  0.44002  1.0000
  C   C491      1.0  0.91975  0.23300  0.59425  1.0000
  C   C492      1.0  0.92698  0.25790  0.59392  1.0000
  H   H203      1.0  0.92314  0.22290  0.53757  1.0000
  H   H204      1.0  0.93560  0.26583  0.53699  1.0000
  C   C493      1.0  0.61765  0.76825  0.39138  1.0000
  C   C494      1.0  0.61032  0.74344  0.39131  1.0000
  H   H205      1.0  0.59969  0.73623  0.44691  1.0000
  H   H206      1.0  0.61264  0.77819  0.44765  1.0000
  C   C495      1.0  0.67483  0.75816  0.60085  1.0000
  C   C496      1.0  0.66707  0.73335  0.60043  1.0000
  H   H207      1.0  0.68353  0.76611  0.54407  1.0000
  H   H208      1.0  0.67015  0.72334  0.54337  1.0000
  C   C497      1.0  0.51317  0.01678  0.43045  1.0000
  C   C498      1.0  0.51348  0.99115  0.43125  1.0000
  H   H209      1.0  0.52129  0.98247  0.48770  1.0000
  H   H210      1.0  0.52079  0.02583  0.48631  1.0000
  C   C499      1.0  0.46253  0.01516  0.63337  1.0000
  C   C500      1.0  0.46265  0.98964  0.63444  1.0000
  H   H211      1.0  0.45758  0.02417  0.57515  1.0000
  H   H212      1.0  0.45770  0.98021  0.57711  1.0000
  C   C501      1.0  0.73860  0.51623  0.42581  1.0000
  C   C502      1.0  0.73984  0.49062  0.42563  1.0000
  H   H213      1.0  0.73238  0.48152  0.48156  1.0000
  H   H214      1.0  0.73043  0.52486  0.48195  1.0000
  C   C503      1.0  0.78760  0.51817  0.62791  1.0000
  C   C504      1.0  0.78835  0.49267  0.62697  1.0000
  H   H215      1.0  0.79176  0.52765  0.57020  1.0000
  H   H216      1.0  0.79280  0.48375  0.56826  1.0000
