data_image0
_chemical_formula_structural       NCHNCHNCHNCHC2NC2NC2NC2N2CHNCHC2NC2NC2NC2N2CHNCHNCHNCHC2NC2NC2NC2NC2NC2NC2NC2NC6H3C6H3C6H3C6H3C6H3C6H3C6H3C6H3C6H3C6H3C6H3C6H3C2NC2NC2NC2NC2NC2NC2NC2N2CHNCHC2NC2NC2NC2N2CHNCHC2NC2NC2NC2NC2NC2NC2NC2N2CHNCHNCHNCHNCHNCHNCHNCHC2NC2NC2NC2N2CHNCHC2NC2NC2NC2N2CHNCHNCHNCHC2NC2NC2NC2NC2NC2NC2NC2NC6H3C6H3C6H3C6H3C6H3C6H3C6H3C6H3C6H3C6H3C6H3C6H3C2NC2NC2NC2NC2NC2NC2NC2N2CHNCHC2NC2NC2NC2N2CHNCHC2NC2NC2NC2NC2NC2NC2NC2N2CHNCHNCHNCH
_chemical_formula_sum              "N108 C324 H108"
_cell_length_a       42.651
_cell_length_b       55.2956
_cell_length_c       14.8905
_cell_angle_alpha    90
_cell_angle_beta     90
_cell_angle_gamma    90

_space_group_name_H-M_alt    "P 1"
_space_group_IT_number       1

loop_
  _space_group_symop_operation_xyz
  'x, y, z'

loop_
  _atom_site_type_symbol
  _atom_site_label
  _atom_site_symmetry_multiplicity
  _atom_site_fract_x
  _atom_site_fract_y
  _atom_site_fract_z
  _atom_site_occupancy
  N   N1        1.0  0.27101  0.15201  0.34167  1.0000
  C   C1        1.0  0.23919  0.14967  0.33445  1.0000
  H   H1        1.0  0.23037  0.13580  0.29693  1.0000
  N   N2        1.0  0.23742  0.85508  0.33856  1.0000
  C   C2        1.0  0.26928  0.85707  0.33116  1.0000
  H   H2        1.0  0.27834  0.87102  0.29453  1.0000
  N   N3        1.0  0.02154  0.65282  0.34500  1.0000
  C   C3        1.0  0.48978  0.65043  0.33682  1.0000
  H   H3        1.0  0.48109  0.63640  0.29989  1.0000
  N   N4        1.0  0.48736  0.35457  0.34056  1.0000
  C   C4        1.0  0.01918  0.35660  0.33236  1.0000
  H   H4        1.0  0.02814  0.37065  0.29610  1.0000
  C   C5        1.0  0.05916  0.10839  0.28892  1.0000
  C   C6        1.0  0.11146  0.14029  0.29292  1.0000
  N   N5        1.0  0.08380  0.14602  0.25321  1.0000
  C   C7        1.0  0.05840  0.13156  0.24704  1.0000
  C   C8        1.0  0.03606  0.13993  0.19614  1.0000
  N   N6        1.0  0.01646  0.14737  0.15102  1.0000
  C   C9        1.0  0.44964  0.89744  0.28771  1.0000
  C   C10       1.0  0.39722  0.86562  0.29153  1.0000
  N   N7        1.0  0.42517  0.85962  0.25408  1.0000
  C   C11       1.0  0.45069  0.87397  0.24827  1.0000
  C   C12       1.0  0.47322  0.86525  0.19894  1.0000
  N   N8        1.0  0.49296  0.85748  0.15513  1.0000
  N   N9        1.0  0.41919  0.10197  0.34462  1.0000
  C   C13       1.0  0.39321  0.11649  0.34846  1.0000
  H   H5        1.0  0.37278  0.11032  0.32119  1.0000
  N   N10       1.0  0.08925  0.90609  0.34271  1.0000
  C   C14       1.0  0.11524  0.89159  0.34741  1.0000
  H   H6        1.0  0.13554  0.89747  0.31844  1.0000
  C   C15       1.0  0.30999  0.60807  0.28757  1.0000
  C   C16       1.0  0.36238  0.63987  0.29127  1.0000
  N   N11       1.0  0.33491  0.64544  0.25016  1.0000
  C   C17       1.0  0.30952  0.63099  0.24382  1.0000
  C   C18       1.0  0.28735  0.63923  0.19202  1.0000
  N   N12       1.0  0.26791  0.64658  0.14615  1.0000
  C   C19       1.0  0.19946  0.39782  0.28618  1.0000
  C   C20       1.0  0.14692  0.36607  0.28957  1.0000
  N   N13       1.0  0.17478  0.36017  0.25139  1.0000
  C   C21       1.0  0.20031  0.37449  0.24553  1.0000
  C   C22       1.0  0.22276  0.36579  0.19583  1.0000
  N   N14       1.0  0.24243  0.35804  0.15171  1.0000
  N   N15       1.0  0.16958  0.60245  0.34371  1.0000
  C   C23       1.0  0.14363  0.61701  0.34786  1.0000
  H   H7        1.0  0.12294  0.61067  0.32277  1.0000
  N   N16       1.0  0.33942  0.40599  0.34125  1.0000
  C   C24       1.0  0.36536  0.39141  0.34626  1.0000
  H   H8        1.0  0.38587  0.39739  0.31888  1.0000
  N   N17       1.0  0.10431  0.26206  0.27185  1.0000
  C   C25       1.0  0.10991  0.23785  0.26981  1.0000
  H   H9        1.0  0.09494  0.22708  0.23443  1.0000
  N   N18       1.0  0.40396  0.74401  0.27204  1.0000
  C   C26       1.0  0.39827  0.76820  0.26918  1.0000
  H   H10       1.0  0.41325  0.77892  0.23363  1.0000
  C   C27       1.0  0.38490  0.27896  0.36888  1.0000
  C   C28       1.0  0.37184  0.22880  0.36721  1.0000
  N   N19       1.0  0.35452  0.24519  0.32003  1.0000
  C   C29       1.0  0.35965  0.26943  0.31792  1.0000
  C   C30       1.0  0.34182  0.28201  0.26475  1.0000
  N   N20       1.0  0.32604  0.29307  0.21765  1.0000
  C   C31       1.0  0.12257  0.72934  0.36799  1.0000
  C   C32       1.0  0.13535  0.77940  0.36543  1.0000
  N   N21       1.0  0.15061  0.76339  0.31122  1.0000
  C   C33       1.0  0.14536  0.73917  0.30901  1.0000
  C   C34       1.0  0.16054  0.72680  0.24880  1.0000
  N   N22       1.0  0.17378  0.71592  0.19518  1.0000
  C   C35       1.0  0.00237  0.97811  0.32351  1.0000
  C   C36       1.0  0.00393  0.02956  0.33248  1.0000
  N   N23       1.0  0.98317  0.01742  0.27991  1.0000
  C   C37       1.0  0.98143  0.99291  0.27268  1.0000
  C   C38       1.0  0.96175  0.98516  0.21256  1.0000
  N   N24       1.0  0.94436  0.97854  0.15907  1.0000
  C   C39       1.0  0.25248  0.47826  0.32362  1.0000
  C   C40       1.0  0.25404  0.52971  0.33326  1.0000
  N   N25       1.0  0.23329  0.51761  0.28053  1.0000
  C   C41       1.0  0.23153  0.49311  0.27304  1.0000
  C   C42       1.0  0.21186  0.48543  0.21279  1.0000
  N   N26       1.0  0.19446  0.47886  0.15921  1.0000
  C   C43       1.0  0.14541  0.20320  0.31744  1.0000
  C   C44       1.0  0.17629  0.19693  0.34219  1.0000
  C   C45       1.0  0.18767  0.17281  0.34441  1.0000
  C   C46       1.0  0.16615  0.15411  0.32405  1.0000
  C   C47       1.0  0.13425  0.15895  0.30331  1.0000
  C   C48       1.0  0.12501  0.18372  0.29759  1.0000
  H   H11       1.0  0.17383  0.13664  0.32664  1.0000
  H   H12       1.0  0.10209  0.18778  0.28499  1.0000
  H   H13       1.0  0.19176  0.21076  0.35291  1.0000
  C   C49       1.0  0.36272  0.80289  0.31559  1.0000
  C   C50       1.0  0.33176  0.80928  0.33905  1.0000
  C   C51       1.0  0.32053  0.83345  0.34077  1.0000
  C   C52       1.0  0.34226  0.85204  0.32095  1.0000
  C   C53       1.0  0.37423  0.84708  0.30149  1.0000
  C   C54       1.0  0.38333  0.82227  0.29652  1.0000
  H   H14       1.0  0.33471  0.86955  0.32327  1.0000
  H   H15       1.0  0.40629  0.81811  0.28494  1.0000
  H   H16       1.0  0.31618  0.79550  0.34940  1.0000
  C   C55       1.0  0.36250  0.20392  0.36913  1.0000
  C   C56       1.0  0.33040  0.19826  0.36647  1.0000
  C   C57       1.0  0.31865  0.17439  0.37360  1.0000
  C   C58       1.0  0.34072  0.15523  0.36784  1.0000
  C   C59       1.0  0.37355  0.15967  0.37351  1.0000
  C   C60       1.0  0.38352  0.18431  0.37676  1.0000
  H   H17       1.0  0.33268  0.13784  0.37125  1.0000
  H   H18       1.0  0.40694  0.18829  0.37721  1.0000
  H   H19       1.0  0.31497  0.21223  0.35821  1.0000
  C   C61       1.0  0.14501  0.80414  0.36741  1.0000
  C   C62       1.0  0.17715  0.80944  0.36250  1.0000
  C   C63       1.0  0.18935  0.83316  0.37037  1.0000
  C   C64       1.0  0.16755  0.85255  0.36645  1.0000
  C   C65       1.0  0.13469  0.84842  0.37393  1.0000
  C   C66       1.0  0.12435  0.82387  0.37770  1.0000
  H   H20       1.0  0.17591  0.86986  0.36970  1.0000
  H   H21       1.0  0.10089  0.82003  0.37997  1.0000
  H   H22       1.0  0.19224  0.79531  0.35265  1.0000
  C   C67       1.0  0.39538  0.70278  0.31660  1.0000
  C   C68       1.0  0.42626  0.69725  0.34256  1.0000
  C   C69       1.0  0.43803  0.67323  0.34521  1.0000
  C   C70       1.0  0.41685  0.65423  0.32474  1.0000
  C   C71       1.0  0.38497  0.65865  0.30220  1.0000
  C   C72       1.0  0.37537  0.68328  0.29543  1.0000
  H   H23       1.0  0.42475  0.63682  0.32825  1.0000
  H   H24       1.0  0.35276  0.68740  0.27836  1.0000
  H   H25       1.0  0.44085  0.71150  0.35625  1.0000
  C   C73       1.0  0.11310  0.30341  0.31496  1.0000
  C   C74       1.0  0.08215  0.30918  0.33937  1.0000
  C   C75       1.0  0.07062  0.33329  0.34112  1.0000
  C   C76       1.0  0.09210  0.35211  0.32105  1.0000
  C   C77       1.0  0.12406  0.34746  0.30003  1.0000
  C   C78       1.0  0.13342  0.32276  0.29425  1.0000
  H   H26       1.0  0.08437  0.36956  0.32390  1.0000
  H   H27       1.0  0.15605  0.31846  0.27809  1.0000
  H   H28       1.0  0.06736  0.29505  0.35285  1.0000
  C   C79       1.0  0.11306  0.70453  0.37119  1.0000
  C   C80       1.0  0.08094  0.69909  0.37213  1.0000
  C   C81       1.0  0.06907  0.67521  0.37759  1.0000
  C   C82       1.0  0.09108  0.65602  0.36972  1.0000
  C   C83       1.0  0.12400  0.66029  0.37303  1.0000
  C   C84       1.0  0.13409  0.68490  0.37540  1.0000
  H   H29       1.0  0.08299  0.63863  0.37205  1.0000
  H   H30       1.0  0.15749  0.68891  0.37673  1.0000
  H   H31       1.0  0.06574  0.71319  0.36309  1.0000
  C   C85       1.0  0.39481  0.30376  0.37079  1.0000
  C   C86       1.0  0.42700  0.30895  0.36788  1.0000
  C   C87       1.0  0.43937  0.33267  0.37351  1.0000
  C   C88       1.0  0.41766  0.35211  0.36749  1.0000
  C   C89       1.0  0.38472  0.34817  0.37383  1.0000
  C   C90       1.0  0.37426  0.32366  0.37795  1.0000
  H   H32       1.0  0.42606  0.36942  0.36927  1.0000
  H   H33       1.0  0.35085  0.31994  0.38273  1.0000
  H   H34       1.0  0.44192  0.29477  0.35688  1.0000
  C   C91       1.0  0.03210  0.09413  0.30856  1.0000
  C   C92       1.0  0.50354  0.10597  0.32820  1.0000
  C   C93       1.0  0.47525  0.09419  0.35155  1.0000
  C   C94       1.0  0.47550  0.06860  0.34533  1.0000
  C   C95       1.0  0.00393  0.05546  0.33308  1.0000
  C   C96       1.0  0.03218  0.06865  0.31900  1.0000
  H   H35       1.0  0.45523  0.05933  0.35837  1.0000
  H   H36       1.0  0.05254  0.05941  0.30692  1.0000
  H   H37       1.0  0.50337  0.12431  0.32615  1.0000
  C   C97       1.0  0.47643  0.91220  0.30537  1.0000
  C   C98       1.0  0.00540  0.90108  0.32512  1.0000
  C   C99       1.0  0.03307  0.91357  0.34915  1.0000
  C   C100      1.0  0.03197  0.93914  0.34105  1.0000
  C   C101      1.0  0.50333  0.95187  0.32497  1.0000
  C   C102      1.0  0.47564  0.93769  0.31404  1.0000
  H   H38       1.0  0.05208  0.94868  0.35313  1.0000
  H   H39       1.0  0.45442  0.94602  0.30777  1.0000
  H   H40       1.0  0.00622  0.88273  0.32427  1.0000
  C   C103      1.0  0.28275  0.59405  0.30752  1.0000
  C   C104      1.0  0.25420  0.60609  0.32564  1.0000
  C   C105      1.0  0.22577  0.59456  0.34938  1.0000
  C   C106      1.0  0.22584  0.56893  0.34443  1.0000
  C   C107      1.0  0.25421  0.55562  0.33339  1.0000
  C   C108      1.0  0.28260  0.56862  0.31932  1.0000
  H   H41       1.0  0.20550  0.55980  0.35782  1.0000
  H   H42       1.0  0.30292  0.55925  0.30803  1.0000
  H   H43       1.0  0.25418  0.62441  0.32224  1.0000
  C   C109      1.0  0.22635  0.41245  0.30401  1.0000
  C   C110      1.0  0.25536  0.40124  0.32256  1.0000
  C   C111      1.0  0.28311  0.41359  0.34695  1.0000
  C   C112      1.0  0.28205  0.43919  0.33989  1.0000
  C   C113      1.0  0.25343  0.45201  0.32456  1.0000
  C   C114      1.0  0.22567  0.43791  0.31369  1.0000
  H   H44       1.0  0.30221  0.44867  0.35201  1.0000
  H   H45       1.0  0.20445  0.44630  0.30813  1.0000
  H   H46       1.0  0.25612  0.38290  0.32081  1.0000
  C   C115      1.0  0.28573  0.17101  0.38259  1.0000
  C   C116      1.0  0.21991  0.16899  0.36350  1.0000
  N   N27       1.0  0.23473  0.18639  0.41160  1.0000
  C   C117      1.0  0.26575  0.18802  0.42585  1.0000
  C   C118      1.0  0.27395  0.20490  0.48225  1.0000
  N   N28       1.0  0.28107  0.21981  0.53194  1.0000
  C   C119      1.0  0.22238  0.83608  0.37855  1.0000
  C   C120      1.0  0.28826  0.83746  0.35926  1.0000
  N   N29       1.0  0.27314  0.82005  0.40645  1.0000
  C   C121      1.0  0.24210  0.81868  0.42068  1.0000
  C   C122      1.0  0.23368  0.80170  0.47641  1.0000
  N   N30       1.0  0.22639  0.78670  0.52553  1.0000
  C   C123      1.0  0.03609  0.67192  0.38582  1.0000
  C   C124      1.0  0.47027  0.66971  0.36506  1.0000
  N   N31       1.0  0.48486  0.68729  0.41281  1.0000
  C   C125      1.0  0.01586  0.68900  0.42784  1.0000
  C   C126      1.0  0.02379  0.70594  0.48435  1.0000
  N   N32       1.0  0.03065  0.72086  0.53427  1.0000
  C   C127      1.0  0.47245  0.33552  0.38070  1.0000
  C   C128      1.0  0.03836  0.33707  0.36017  1.0000
  N   N33       1.0  0.02340  0.31955  0.40726  1.0000
  C   C129      1.0  0.49238  0.31810  0.42202  1.0000
  C   C130      1.0  0.48421  0.30116  0.47824  1.0000
  N   N34       1.0  0.47714  0.28624  0.52790  1.0000
  N   N35       1.0  0.08761  0.10167  0.32277  1.0000
  C   C131      1.0  0.11368  0.11601  0.32313  1.0000
  H   H47       1.0  0.13324  0.10973  0.35485  1.0000
  N   N36       1.0  0.42094  0.90436  0.31923  1.0000
  C   C132      1.0  0.39483  0.89008  0.31948  1.0000
  H   H48       1.0  0.37511  0.89657  0.34973  1.0000
  C   C133      1.0  0.44846  0.10865  0.37275  1.0000
  C   C134      1.0  0.39641  0.14088  0.37655  1.0000
  N   N37       1.0  0.42492  0.14649  0.41111  1.0000
  C   C135      1.0  0.45027  0.13194  0.41343  1.0000
  C   C136      1.0  0.47346  0.14027  0.46129  1.0000
  N   N38       1.0  0.49379  0.14765  0.50379  1.0000
  C   C137      1.0  0.06010  0.89963  0.37254  1.0000
  C   C138      1.0  0.11207  0.86738  0.37766  1.0000
  N   N39       1.0  0.08374  0.86206  0.41401  1.0000
  C   C139      1.0  0.05850  0.87672  0.41622  1.0000
  C   C140      1.0  0.03527  0.86867  0.46464  1.0000
  N   N40       1.0  0.01489  0.86153  0.50750  1.0000
  N   N41       1.0  0.33829  0.60147  0.32283  1.0000
  C   C141      1.0  0.36447  0.61573  0.32290  1.0000
  H   H49       1.0  0.38381  0.60963  0.35618  1.0000
  N   N42       1.0  0.17083  0.40468  0.31849  1.0000
  C   C142      1.0  0.14466  0.39044  0.31862  1.0000
  H   H50       1.0  0.12501  0.39687  0.34946  1.0000
  C   C143      1.0  0.19906  0.60923  0.36980  1.0000
  C   C144      1.0  0.14691  0.64149  0.37476  1.0000
  N   N43       1.0  0.17567  0.64719  0.40743  1.0000
  C   C145      1.0  0.20106  0.63269  0.40920  1.0000
  C   C146      1.0  0.22446  0.64129  0.45554  1.0000
  N   N44       1.0  0.24495  0.64893  0.49672  1.0000
  C   C147      1.0  0.31010  0.39950  0.36977  1.0000
  C   C148      1.0  0.36211  0.36718  0.37626  1.0000
  N   N45       1.0  0.33358  0.36189  0.41139  1.0000
  C   C149      1.0  0.30831  0.37650  0.41278  1.0000
  C   C150      1.0  0.28498  0.36837  0.46063  1.0000
  N   N46       1.0  0.26452  0.36114  0.50297  1.0000
  C   C151      1.0  0.12283  0.27863  0.31424  1.0000
  C   C152      1.0  0.13637  0.22836  0.31498  1.0000
  N   N47       1.0  0.15444  0.24514  0.35789  1.0000
  C   C153      1.0  0.14943  0.26938  0.35976  1.0000
  C   C154      1.0  0.16858  0.28222  0.40820  1.0000
  N   N48       1.0  0.18551  0.29355  0.45096  1.0000
  C   C155      1.0  0.38544  0.72750  0.31468  1.0000
  C   C156      1.0  0.37171  0.77772  0.31376  1.0000
  N   N49       1.0  0.35359  0.76101  0.35687  1.0000
  C   C157      1.0  0.35870  0.73678  0.35946  1.0000
  C   C158      1.0  0.33956  0.72397  0.40800  1.0000
  N   N50       1.0  0.32264  0.71266  0.45089  1.0000
  N   N51       1.0  0.40232  0.26251  0.41569  1.0000
  C   C159      1.0  0.39711  0.23829  0.41708  1.0000
  H   H51       1.0  0.41092  0.22756  0.45644  1.0000
  N   N52       1.0  0.10709  0.74542  0.42164  1.0000
  C   C160      1.0  0.11229  0.76964  0.42281  1.0000
  H   H52       1.0  0.10030  0.78019  0.46742  1.0000
  N   N53       1.0  0.02349  0.99059  0.37470  1.0000
  C   C161      1.0  0.52545  0.01512  0.38062  1.0000
  H   H53       1.0  0.54199  0.02271  0.42148  1.0000
  N   N54       1.0  0.27362  0.49068  0.37494  1.0000
  C   C162      1.0  0.27557  0.51521  0.38121  1.0000
  H   H54       1.0  0.29215  0.52276  0.42201  1.0000
  N   N55       1.0  0.77101  0.15201  0.34167  1.0000
  C   C163      1.0  0.73919  0.14967  0.33445  1.0000
  H   H55       1.0  0.73037  0.13580  0.29693  1.0000
  N   N56       1.0  0.73742  0.85508  0.33856  1.0000
  C   C164      1.0  0.76928  0.85707  0.33116  1.0000
  H   H56       1.0  0.77834  0.87102  0.29453  1.0000
  N   N57       1.0  0.52154  0.65282  0.34500  1.0000
  C   C165      1.0  0.98977  0.65043  0.33682  1.0000
  H   H57       1.0  0.98108  0.63640  0.29989  1.0000
  N   N58       1.0  0.98736  0.35457  0.34056  1.0000
  C   C166      1.0  0.51918  0.35660  0.33236  1.0000
  H   H58       1.0  0.52814  0.37065  0.29610  1.0000
  C   C167      1.0  0.55916  0.10839  0.28892  1.0000
  C   C168      1.0  0.61146  0.14029  0.29292  1.0000
  N   N59       1.0  0.58380  0.14602  0.25321  1.0000
  C   C169      1.0  0.55840  0.13156  0.24704  1.0000
  C   C170      1.0  0.53606  0.13993  0.19614  1.0000
  N   N60       1.0  0.51646  0.14737  0.15102  1.0000
  C   C171      1.0  0.94965  0.89744  0.28771  1.0000
  C   C172      1.0  0.89722  0.86562  0.29153  1.0000
  N   N61       1.0  0.92517  0.85962  0.25408  1.0000
  C   C173      1.0  0.95069  0.87397  0.24827  1.0000
  C   C174      1.0  0.97322  0.86525  0.19894  1.0000
  N   N62       1.0  0.99296  0.85748  0.15513  1.0000
  N   N63       1.0  0.91919  0.10197  0.34462  1.0000
  C   C175      1.0  0.89322  0.11649  0.34846  1.0000
  H   H59       1.0  0.87278  0.11032  0.32119  1.0000
  N   N64       1.0  0.58925  0.90609  0.34271  1.0000
  C   C176      1.0  0.61524  0.89159  0.34741  1.0000
  H   H60       1.0  0.63554  0.89747  0.31844  1.0000
  C   C177      1.0  0.80999  0.60807  0.28757  1.0000
  C   C178      1.0  0.86238  0.63987  0.29127  1.0000
  N   N65       1.0  0.83491  0.64544  0.25016  1.0000
  C   C179      1.0  0.80952  0.63099  0.24382  1.0000
  C   C180      1.0  0.78735  0.63923  0.19202  1.0000
  N   N66       1.0  0.76792  0.64658  0.14615  1.0000
  C   C181      1.0  0.69946  0.39782  0.28618  1.0000
  C   C182      1.0  0.64692  0.36607  0.28957  1.0000
  N   N67       1.0  0.67478  0.36017  0.25139  1.0000
  C   C183      1.0  0.70032  0.37449  0.24553  1.0000
  C   C184      1.0  0.72276  0.36579  0.19583  1.0000
  N   N68       1.0  0.74243  0.35804  0.15171  1.0000
  N   N69       1.0  0.66958  0.60245  0.34371  1.0000
  C   C185      1.0  0.64363  0.61701  0.34786  1.0000
  H   H61       1.0  0.62294  0.61067  0.32277  1.0000
  N   N70       1.0  0.83942  0.40599  0.34125  1.0000
  C   C186      1.0  0.86536  0.39141  0.34626  1.0000
  H   H62       1.0  0.88587  0.39739  0.31888  1.0000
  N   N71       1.0  0.60432  0.26206  0.27185  1.0000
  C   C187      1.0  0.60991  0.23785  0.26981  1.0000
  H   H63       1.0  0.59494  0.22708  0.23443  1.0000
  N   N72       1.0  0.90396  0.74401  0.27204  1.0000
  C   C188      1.0  0.89827  0.76820  0.26918  1.0000
  H   H64       1.0  0.91325  0.77892  0.23363  1.0000
  C   C189      1.0  0.88491  0.27896  0.36888  1.0000
  C   C190      1.0  0.87184  0.22880  0.36721  1.0000
  N   N73       1.0  0.85453  0.24519  0.32003  1.0000
  C   C191      1.0  0.85966  0.26943  0.31792  1.0000
  C   C192      1.0  0.84182  0.28201  0.26475  1.0000
  N   N74       1.0  0.82604  0.29307  0.21765  1.0000
  C   C193      1.0  0.62257  0.72934  0.36799  1.0000
  C   C194      1.0  0.63535  0.77940  0.36543  1.0000
  N   N75       1.0  0.65062  0.76339  0.31122  1.0000
  C   C195      1.0  0.64536  0.73917  0.30901  1.0000
  C   C196      1.0  0.66054  0.72680  0.24880  1.0000
  N   N76       1.0  0.67378  0.71592  0.19518  1.0000
  C   C197      1.0  0.50237  0.97811  0.32351  1.0000
  C   C198      1.0  0.50393  0.02956  0.33248  1.0000
  N   N77       1.0  0.48317  0.01742  0.27991  1.0000
  C   C199      1.0  0.48143  0.99291  0.27268  1.0000
  C   C200      1.0  0.46175  0.98516  0.21256  1.0000
  N   N78       1.0  0.44436  0.97854  0.15907  1.0000
  C   C201      1.0  0.75248  0.47826  0.32362  1.0000
  C   C202      1.0  0.75404  0.52971  0.33326  1.0000
  N   N79       1.0  0.73330  0.51761  0.28053  1.0000
  C   C203      1.0  0.73153  0.49311  0.27304  1.0000
  C   C204      1.0  0.71186  0.48543  0.21279  1.0000
  N   N80       1.0  0.69447  0.47886  0.15921  1.0000
  C   C205      1.0  0.64541  0.20320  0.31744  1.0000
  C   C206      1.0  0.67629  0.19693  0.34219  1.0000
  C   C207      1.0  0.68767  0.17281  0.34441  1.0000
  C   C208      1.0  0.66616  0.15411  0.32405  1.0000
  C   C209      1.0  0.63425  0.15895  0.30331  1.0000
  C   C210      1.0  0.62501  0.18372  0.29759  1.0000
  H   H65       1.0  0.67383  0.13664  0.32664  1.0000
  H   H66       1.0  0.60209  0.18778  0.28499  1.0000
  H   H67       1.0  0.69176  0.21076  0.35291  1.0000
  C   C211      1.0  0.86272  0.80289  0.31559  1.0000
  C   C212      1.0  0.83176  0.80928  0.33905  1.0000
  C   C213      1.0  0.82053  0.83345  0.34077  1.0000
  C   C214      1.0  0.84226  0.85204  0.32095  1.0000
  C   C215      1.0  0.87424  0.84708  0.30149  1.0000
  C   C216      1.0  0.88333  0.82227  0.29652  1.0000
  H   H68       1.0  0.83471  0.86955  0.32327  1.0000
  H   H69       1.0  0.90629  0.81811  0.28494  1.0000
  H   H70       1.0  0.81618  0.79550  0.34940  1.0000
  C   C217      1.0  0.86250  0.20392  0.36913  1.0000
  C   C218      1.0  0.83040  0.19826  0.36647  1.0000
  C   C219      1.0  0.81866  0.17439  0.37360  1.0000
  C   C220      1.0  0.84072  0.15523  0.36784  1.0000
  C   C221      1.0  0.87355  0.15967  0.37351  1.0000
  C   C222      1.0  0.88353  0.18431  0.37676  1.0000
  H   H71       1.0  0.83269  0.13784  0.37125  1.0000
  H   H72       1.0  0.90694  0.18829  0.37721  1.0000
  H   H73       1.0  0.81497  0.21223  0.35821  1.0000
  C   C223      1.0  0.64501  0.80414  0.36741  1.0000
  C   C224      1.0  0.67715  0.80944  0.36250  1.0000
  C   C225      1.0  0.68935  0.83316  0.37037  1.0000
  C   C226      1.0  0.66755  0.85255  0.36645  1.0000
  C   C227      1.0  0.63469  0.84842  0.37393  1.0000
  C   C228      1.0  0.62435  0.82387  0.37770  1.0000
  H   H74       1.0  0.67591  0.86986  0.36970  1.0000
  H   H75       1.0  0.60089  0.82003  0.37997  1.0000
  H   H76       1.0  0.69224  0.79531  0.35265  1.0000
  C   C229      1.0  0.89539  0.70278  0.31660  1.0000
  C   C230      1.0  0.92626  0.69725  0.34256  1.0000
  C   C231      1.0  0.93803  0.67323  0.34521  1.0000
  C   C232      1.0  0.91686  0.65423  0.32474  1.0000
  C   C233      1.0  0.88497  0.65865  0.30220  1.0000
  C   C234      1.0  0.87537  0.68328  0.29543  1.0000
  H   H77       1.0  0.92475  0.63682  0.32825  1.0000
  H   H78       1.0  0.85276  0.68740  0.27836  1.0000
  H   H79       1.0  0.94085  0.71150  0.35625  1.0000
  C   C235      1.0  0.61310  0.30341  0.31496  1.0000
  C   C236      1.0  0.58215  0.30918  0.33937  1.0000
  C   C237      1.0  0.57062  0.33329  0.34112  1.0000
  C   C238      1.0  0.59210  0.35211  0.32105  1.0000
  C   C239      1.0  0.62406  0.34746  0.30003  1.0000
  C   C240      1.0  0.63342  0.32276  0.29425  1.0000
  H   H80       1.0  0.58437  0.36956  0.32390  1.0000
  H   H81       1.0  0.65605  0.31846  0.27809  1.0000
  H   H82       1.0  0.56736  0.29505  0.35285  1.0000
  C   C241      1.0  0.61306  0.70453  0.37119  1.0000
  C   C242      1.0  0.58094  0.69909  0.37213  1.0000
  C   C243      1.0  0.56907  0.67521  0.37759  1.0000
  C   C244      1.0  0.59108  0.65602  0.36972  1.0000
  C   C245      1.0  0.62400  0.66029  0.37303  1.0000
  C   C246      1.0  0.63409  0.68490  0.37540  1.0000
  H   H83       1.0  0.58299  0.63863  0.37205  1.0000
  H   H84       1.0  0.65750  0.68891  0.37673  1.0000
  H   H85       1.0  0.56574  0.71319  0.36309  1.0000
  C   C247      1.0  0.89481  0.30376  0.37079  1.0000
  C   C248      1.0  0.92700  0.30895  0.36788  1.0000
  C   C249      1.0  0.93937  0.33267  0.37351  1.0000
  C   C250      1.0  0.91765  0.35211  0.36749  1.0000
  C   C251      1.0  0.88472  0.34817  0.37383  1.0000
  C   C252      1.0  0.87426  0.32366  0.37795  1.0000
  H   H86       1.0  0.92606  0.36942  0.36927  1.0000
  H   H87       1.0  0.85085  0.31994  0.38273  1.0000
  H   H88       1.0  0.94192  0.29477  0.35688  1.0000
  C   C253      1.0  0.53210  0.09413  0.30856  1.0000
  C   C254      1.0  0.00354  0.10597  0.32820  1.0000
  C   C255      1.0  0.97525  0.09419  0.35155  1.0000
  C   C256      1.0  0.97550  0.06860  0.34533  1.0000
  C   C257      1.0  0.50393  0.05546  0.33308  1.0000
  C   C258      1.0  0.53218  0.06865  0.31900  1.0000
  H   H89       1.0  0.95523  0.05933  0.35837  1.0000
  H   H90       1.0  0.55254  0.05941  0.30692  1.0000
  H   H91       1.0  0.00337  0.12431  0.32615  1.0000
  C   C259      1.0  0.97644  0.91220  0.30537  1.0000
  C   C260      1.0  0.50540  0.90108  0.32512  1.0000
  C   C261      1.0  0.53307  0.91357  0.34915  1.0000
  C   C262      1.0  0.53197  0.93914  0.34105  1.0000
  C   C263      1.0  0.00333  0.95187  0.32497  1.0000
  C   C264      1.0  0.97564  0.93769  0.31404  1.0000
  H   H92       1.0  0.55208  0.94868  0.35313  1.0000
  H   H93       1.0  0.95442  0.94602  0.30777  1.0000
  H   H94       1.0  0.50622  0.88273  0.32427  1.0000
  C   C265      1.0  0.78275  0.59405  0.30752  1.0000
  C   C266      1.0  0.75420  0.60609  0.32564  1.0000
  C   C267      1.0  0.72577  0.59456  0.34938  1.0000
  C   C268      1.0  0.72584  0.56893  0.34443  1.0000
  C   C269      1.0  0.75422  0.55562  0.33339  1.0000
  C   C270      1.0  0.78260  0.56862  0.31932  1.0000
  H   H95       1.0  0.70550  0.55980  0.35782  1.0000
  H   H96       1.0  0.80292  0.55925  0.30803  1.0000
  H   H97       1.0  0.75418  0.62441  0.32224  1.0000
  C   C271      1.0  0.72635  0.41245  0.30401  1.0000
  C   C272      1.0  0.75536  0.40124  0.32256  1.0000
  C   C273      1.0  0.78311  0.41359  0.34695  1.0000
  C   C274      1.0  0.78205  0.43919  0.33989  1.0000
  C   C275      1.0  0.75343  0.45201  0.32456  1.0000
  C   C276      1.0  0.72567  0.43791  0.31369  1.0000
  H   H98       1.0  0.80221  0.44867  0.35201  1.0000
  H   H99       1.0  0.70445  0.44630  0.30813  1.0000
  H   H100      1.0  0.75613  0.38290  0.32081  1.0000
  C   C277      1.0  0.78573  0.17101  0.38259  1.0000
  C   C278      1.0  0.71991  0.16899  0.36350  1.0000
  N   N81       1.0  0.73472  0.18639  0.41160  1.0000
  C   C279      1.0  0.76575  0.18802  0.42585  1.0000
  C   C280      1.0  0.77395  0.20490  0.48225  1.0000
  N   N82       1.0  0.78107  0.21981  0.53194  1.0000
  C   C281      1.0  0.72238  0.83608  0.37855  1.0000
  C   C282      1.0  0.78826  0.83746  0.35926  1.0000
  N   N83       1.0  0.77314  0.82005  0.40645  1.0000
  C   C283      1.0  0.74210  0.81868  0.42068  1.0000
  C   C284      1.0  0.73368  0.80170  0.47641  1.0000
  N   N84       1.0  0.72639  0.78670  0.52553  1.0000
  C   C285      1.0  0.53609  0.67192  0.38582  1.0000
  C   C286      1.0  0.97027  0.66971  0.36506  1.0000
  N   N85       1.0  0.98487  0.68729  0.41281  1.0000
  C   C287      1.0  0.51586  0.68900  0.42784  1.0000
  C   C288      1.0  0.52379  0.70594  0.48435  1.0000
  N   N86       1.0  0.53065  0.72086  0.53427  1.0000
  C   C289      1.0  0.97246  0.33552  0.38070  1.0000
  C   C290      1.0  0.53836  0.33707  0.36017  1.0000
  N   N87       1.0  0.52340  0.31955  0.40726  1.0000
  C   C291      1.0  0.99238  0.31810  0.42202  1.0000
  C   C292      1.0  0.98421  0.30116  0.47824  1.0000
  N   N88       1.0  0.97714  0.28624  0.52790  1.0000
  N   N89       1.0  0.58761  0.10167  0.32277  1.0000
  C   C293      1.0  0.61369  0.11601  0.32313  1.0000
  H   H101      1.0  0.63324  0.10973  0.35485  1.0000
  N   N90       1.0  0.92094  0.90436  0.31923  1.0000
  C   C294      1.0  0.89483  0.89008  0.31948  1.0000
  H   H102      1.0  0.87511  0.89657  0.34973  1.0000
  C   C295      1.0  0.94846  0.10865  0.37275  1.0000
  C   C296      1.0  0.89641  0.14088  0.37655  1.0000
  N   N91       1.0  0.92493  0.14649  0.41111  1.0000
  C   C297      1.0  0.95027  0.13194  0.41343  1.0000
  C   C298      1.0  0.97346  0.14027  0.46129  1.0000
  N   N92       1.0  0.99379  0.14765  0.50379  1.0000
  C   C299      1.0  0.56010  0.89963  0.37254  1.0000
  C   C300      1.0  0.61207  0.86738  0.37766  1.0000
  N   N93       1.0  0.58374  0.86206  0.41401  1.0000
  C   C301      1.0  0.55849  0.87672  0.41622  1.0000
  C   C302      1.0  0.53527  0.86867  0.46464  1.0000
  N   N94       1.0  0.51489  0.86153  0.50750  1.0000
  N   N95       1.0  0.83829  0.60147  0.32283  1.0000
  C   C303      1.0  0.86447  0.61573  0.32290  1.0000
  H   H103      1.0  0.88381  0.60963  0.35618  1.0000
  N   N96       1.0  0.67083  0.40468  0.31849  1.0000
  C   C304      1.0  0.64466  0.39044  0.31862  1.0000
  H   H104      1.0  0.62502  0.39687  0.34946  1.0000
  C   C305      1.0  0.69906  0.60923  0.36980  1.0000
  C   C306      1.0  0.64691  0.64149  0.37476  1.0000
  N   N97       1.0  0.67567  0.64719  0.40743  1.0000
  C   C307      1.0  0.70106  0.63269  0.40920  1.0000
  C   C308      1.0  0.72446  0.64129  0.45554  1.0000
  N   N98       1.0  0.74496  0.64893  0.49672  1.0000
  C   C309      1.0  0.81010  0.39950  0.36977  1.0000
  C   C310      1.0  0.86212  0.36718  0.37626  1.0000
  N   N99       1.0  0.83358  0.36189  0.41139  1.0000
  C   C311      1.0  0.80831  0.37650  0.41278  1.0000
  C   C312      1.0  0.78498  0.36837  0.46063  1.0000
  N   N100      1.0  0.76453  0.36114  0.50297  1.0000
  C   C313      1.0  0.62283  0.27863  0.31424  1.0000
  C   C314      1.0  0.63637  0.22836  0.31498  1.0000
  N   N101      1.0  0.65445  0.24514  0.35789  1.0000
  C   C315      1.0  0.64943  0.26938  0.35976  1.0000
  C   C316      1.0  0.66858  0.28222  0.40820  1.0000
  N   N102      1.0  0.68551  0.29355  0.45096  1.0000
  C   C317      1.0  0.88544  0.72750  0.31468  1.0000
  C   C318      1.0  0.87171  0.77772  0.31376  1.0000
  N   N103      1.0  0.85359  0.76101  0.35687  1.0000
  C   C319      1.0  0.85870  0.73678  0.35946  1.0000
  C   C320      1.0  0.83956  0.72397  0.40800  1.0000
  N   N104      1.0  0.82264  0.71266  0.45089  1.0000
  N   N105      1.0  0.90233  0.26251  0.41569  1.0000
  C   C321      1.0  0.89711  0.23829  0.41708  1.0000
  H   H105      1.0  0.91092  0.22756  0.45644  1.0000
  N   N106      1.0  0.60709  0.74542  0.42164  1.0000
  C   C322      1.0  0.61230  0.76964  0.42281  1.0000
  H   H106      1.0  0.60030  0.78019  0.46742  1.0000
  N   N107      1.0  0.52349  0.99059  0.37470  1.0000
  C   C323      1.0  0.02545  0.01512  0.38062  1.0000
  H   H107      1.0  0.04199  0.02271  0.42148  1.0000
  N   N108      1.0  0.77362  0.49068  0.37494  1.0000
  C   C324      1.0  0.77557  0.51521  0.38121  1.0000
  H   H108      1.0  0.79215  0.52276  0.42201  1.0000
