data_image0
_chemical_formula_structural       C4HC6HOHOHCNCHNHCNCHNHCNCHNHC4HC6HOHOHC4HC6HOHOHC4HC6HOHOHC4HC6HOHOHCNCHNHCNCHNHC4HC6HOHOHC4HC6HOHOHCNCHNHCNCHNHC4HC6HOHOHC4HC6HOHOHCNCHNHCNCHNHC4HC6HOHOHC4HC6HOHOHCNCHNHCNCHNHCNCHNHC4HC6HOHOHC6H3C6H3C6H3C6H3C6H3C6H3C6H3C6H3C6H3C6H3C6H3C6H3C6H3C6H3C6H3C6H3CNCHNHC4HC6HOHOHC4HC6HOHOHC4HC6HOHOHCNCHNHCNCHNHCNCHNHCNCHNHC4HC6HOHOHC4HC6HOHOHCNCHNHCNCHNHC4HC6HOHOHC4HC6HOHOHCNCHNHCNCHNHC4HC6HOHOHC4HC6HOHOHCNCHNHCNCHNHC4HC6HOHOHC4HC6HOHOHC4HC6HOHOHCNCHNH
_chemical_formula_sum              "C384 H192 O48 N48"
_cell_length_a       81.6874
_cell_length_b       42.1162
_cell_length_c       14.9183
_cell_angle_alpha    90
_cell_angle_beta     90
_cell_angle_gamma    90

_space_group_name_H-M_alt    "P 1"
_space_group_IT_number       1

loop_
  _space_group_symop_operation_xyz
  'x, y, z'

loop_
  _atom_site_type_symbol
  _atom_site_label
  _atom_site_symmetry_multiplicity
  _atom_site_fract_x
  _atom_site_fract_y
  _atom_site_fract_z
  _atom_site_occupancy
  C   C1        1.0  0.52333  0.57624  0.34473  1.0000
  C   C2        1.0  0.50672  0.51739  0.33389  1.0000
  C   C3        1.0  0.51884  0.52490  0.26878  1.0000
  C   C4        1.0  0.52711  0.55439  0.27582  1.0000
  H   H1        1.0  0.53555  0.56063  0.22829  1.0000
  C   C5        1.0  0.49819  0.48818  0.32976  1.0000
  C   C6        1.0  0.48169  0.42904  0.32734  1.0000
  C   C7        1.0  0.49340  0.43667  0.26073  1.0000
  C   C8        1.0  0.50177  0.46609  0.26050  1.0000
  C   C9        1.0  0.51361  0.47387  0.19470  1.0000
  C   C10       1.0  0.52207  0.50309  0.19873  1.0000
  H   H2        1.0  0.49597  0.42030  0.21203  1.0000
  O   O1        1.0  0.51745  0.45309  0.12793  1.0000
  H   H3        1.0  0.50991  0.45775  0.07825  1.0000
  O   O2        1.0  0.53366  0.50937  0.13551  1.0000
  H   H4        1.0  0.52795  0.52021  0.08618  1.0000
  C   C11       1.0  0.99433  0.06714  0.27041  1.0000
  N   N1        1.0  0.00199  0.03868  0.27761  1.0000
  C   C12       1.0  0.02711  0.95242  0.28497  1.0000
  H   H5        1.0  0.99766  0.08195  0.21931  1.0000
  N   N2        1.0  0.01880  0.98039  0.28547  1.0000
  H   H6        1.0  0.03519  0.94817  0.23407  1.0000
  C   C13       1.0  0.36150  0.30206  0.27123  1.0000
  N   N3        1.0  0.37723  0.31235  0.27411  1.0000
  C   C14       1.0  0.42603  0.33982  0.26753  1.0000
  H   H7        1.0  0.35759  0.28995  0.21584  1.0000
  N   N4        1.0  0.40999  0.33170  0.27205  1.0000
  H   H8        1.0  0.43255  0.33338  0.21194  1.0000
  C   C15       1.0  0.64321  0.70476  0.26977  1.0000
  N   N5        1.0  0.62750  0.69432  0.27303  1.0000
  C   C16       1.0  0.57865  0.66652  0.26869  1.0000
  H   H9        1.0  0.64694  0.71751  0.21516  1.0000
  N   N6        1.0  0.59470  0.67471  0.27226  1.0000
  H   H10       1.0  0.57191  0.67356  0.21450  1.0000
  C   C17       1.0  0.15476  0.80848  0.33466  1.0000
  C   C18       1.0  0.12179  0.82864  0.33318  1.0000
  C   C19       1.0  0.13189  0.83554  0.25809  1.0000
  C   C20       1.0  0.14847  0.82557  0.26069  1.0000
  H   H11       1.0  0.15600  0.83012  0.20738  1.0000
  C   C21       1.0  0.10522  0.83839  0.33411  1.0000
  C   C22       1.0  0.07189  0.85622  0.33862  1.0000
  C   C23       1.0  0.08172  0.86399  0.26374  1.0000
  C   C24       1.0  0.09844  0.85496  0.25982  1.0000
  C   C25       1.0  0.10845  0.86116  0.18428  1.0000
  C   C26       1.0  0.12505  0.85160  0.18351  1.0000
  H   H12       1.0  0.07642  0.87517  0.21019  1.0000
  O   O3        1.0  0.10239  0.87684  0.11164  1.0000
  H   H13       1.0  0.09809  0.86044  0.07106  1.0000
  O   O4        1.0  0.13434  0.85848  0.11018  1.0000
  H   H14       1.0  0.13330  0.84017  0.06965  1.0000
  C   C27       1.0  0.85128  0.19760  0.33759  1.0000
  C   C28       1.0  0.88423  0.17715  0.33521  1.0000
  C   C29       1.0  0.87389  0.16953  0.26161  1.0000
  C   C30       1.0  0.85735  0.17964  0.26470  1.0000
  H   H15       1.0  0.84967  0.17458  0.21239  1.0000
  C   C31       1.0  0.90078  0.16726  0.33556  1.0000
  C   C32       1.0  0.93409  0.14911  0.33831  1.0000
  C   C33       1.0  0.92398  0.14069  0.26515  1.0000
  C   C34       1.0  0.90728  0.14981  0.26210  1.0000
  C   C35       1.0  0.89704  0.14291  0.18799  1.0000
  C   C36       1.0  0.88047  0.15262  0.18784  1.0000
  H   H16       1.0  0.92906  0.12888  0.21202  1.0000
  O   O5        1.0  0.90285  0.12642  0.11615  1.0000
  H   H17       1.0  0.90709  0.14235  0.07391  1.0000
  O   O6        1.0  0.87096  0.14507  0.11591  1.0000
  H   H18       1.0  0.87192  0.16295  0.07381  1.0000
  C   C37       1.0  0.54075  0.17997  0.32962  1.0000
  C   C38       1.0  0.52099  0.23454  0.32505  1.0000
  C   C39       1.0  0.52807  0.22337  0.24391  1.0000
  C   C40       1.0  0.53797  0.19581  0.24760  1.0000
  H   H19       1.0  0.54259  0.18628  0.18974  1.0000
  C   C41       1.0  0.51052  0.26116  0.32444  1.0000
  C   C42       1.0  0.48928  0.31360  0.32716  1.0000
  C   C43       1.0  0.49658  0.30394  0.24582  1.0000
  C   C44       1.0  0.50715  0.27734  0.24284  1.0000
  C   C45       1.0  0.51423  0.26622  0.16206  1.0000
  C   C46       1.0  0.52456  0.23928  0.16252  1.0000
  H   H20       1.0  0.49391  0.31613  0.18827  1.0000
  O   O7        1.0  0.51136  0.28129  0.08279  1.0000
  H   H21       1.0  0.50161  0.27115  0.05678  1.0000
  O   O8        1.0  0.53123  0.22935  0.08366  1.0000
  H   H22       1.0  0.52335  0.21434  0.05741  1.0000
  C   C47       1.0  0.46506  0.82648  0.34702  1.0000
  C   C48       1.0  0.48432  0.77125  0.34182  1.0000
  C   C49       1.0  0.47681  0.78208  0.26147  1.0000
  C   C50       1.0  0.46711  0.80988  0.26555  1.0000
  H   H23       1.0  0.46224  0.81917  0.20799  1.0000
  C   C51       1.0  0.49461  0.74436  0.34061  1.0000
  C   C52       1.0  0.51559  0.69157  0.34183  1.0000
  C   C53       1.0  0.50793  0.70101  0.26133  1.0000
  C   C54       1.0  0.49744  0.72774  0.25913  1.0000
  C   C55       1.0  0.48998  0.73859  0.17909  1.0000
  C   C56       1.0  0.47977  0.76567  0.18020  1.0000
  H   H24       1.0  0.51026  0.68857  0.20376  1.0000
  O   O9        1.0  0.49238  0.72312  0.09995  1.0000
  H   H25       1.0  0.50203  0.73297  0.07208  1.0000
  O   O10       1.0  0.47273  0.77535  0.10204  1.0000
  H   H26       1.0  0.48054  0.79008  0.07394  1.0000
  C   C57       1.0  0.97205  0.69226  0.26962  1.0000
  N   N7        1.0  0.98151  0.71862  0.27460  1.0000
  C   C58       1.0  0.01251  0.79628  0.27192  1.0000
  H   H27       1.0  0.97092  0.68094  0.20932  1.0000
  N   N8        1.0  0.00215  0.77120  0.27588  1.0000
  H   H28       1.0  0.01743  0.80250  0.21141  1.0000
  C   C59       1.0  0.03279  0.31426  0.25329  1.0000
  N   N9        1.0  0.02360  0.28756  0.25850  1.0000
  C   C60       1.0  0.99318  0.20900  0.25730  1.0000
  H   H29       1.0  0.03346  0.32604  0.19348  1.0000
  N   N10       1.0  0.00342  0.23429  0.26062  1.0000
  H   H30       1.0  0.98800  0.20291  0.19733  1.0000
  C   C61       1.0  0.30283  0.05303  0.34394  1.0000
  C   C62       1.0  0.30529  0.12000  0.34021  1.0000
  C   C63       1.0  0.29857  0.10388  0.26496  1.0000
  C   C64       1.0  0.29733  0.07029  0.26842  1.0000
  H   H31       1.0  0.29308  0.05806  0.21391  1.0000
  C   C65       1.0  0.30708  0.15342  0.33926  1.0000
  C   C66       1.0  0.31136  0.22004  0.33991  1.0000
  C   C67       1.0  0.30410  0.20474  0.26545  1.0000
  C   C68       1.0  0.30205  0.17130  0.26328  1.0000
  C   C69       1.0  0.29553  0.15516  0.18797  1.0000
  C   C70       1.0  0.29385  0.12173  0.18871  1.0000
  H   H32       1.0  0.30078  0.21811  0.21112  1.0000
  O   O11       1.0  0.29066  0.17146  0.11375  1.0000
  H   H33       1.0  0.30030  0.17278  0.07441  1.0000
  O   O12       1.0  0.28743  0.10715  0.11516  1.0000
  H   H34       1.0  0.29674  0.10217  0.07580  1.0000
  C   C71       1.0  0.70268  0.95307  0.34648  1.0000
  C   C72       1.0  0.70001  0.88610  0.34132  1.0000
  C   C73       1.0  0.70715  0.90228  0.26736  1.0000
  C   C74       1.0  0.70851  0.93585  0.27161  1.0000
  H   H35       1.0  0.71307  0.94812  0.21790  1.0000
  C   C75       1.0  0.69811  0.85270  0.33954  1.0000
  C   C76       1.0  0.69365  0.78608  0.33849  1.0000
  C   C77       1.0  0.70130  0.80148  0.26535  1.0000
  C   C78       1.0  0.70345  0.83490  0.26401  1.0000
  C   C79       1.0  0.71037  0.85112  0.18994  1.0000
  C   C80       1.0  0.71216  0.88453  0.19150  1.0000
  H   H36       1.0  0.70485  0.78819  0.21129  1.0000
  O   O13       1.0  0.71554  0.83492  0.11615  1.0000
  H   H37       1.0  0.70608  0.83378  0.07547  1.0000
  O   O14       1.0  0.71898  0.89918  0.11914  1.0000
  H   H38       1.0  0.70987  0.90438  0.07858  1.0000
  C   C81       1.0  0.19604  0.57057  0.26145  1.0000
  N   N11       1.0  0.19510  0.60270  0.26561  1.0000
  C   C82       1.0  0.18919  0.70077  0.26508  1.0000
  H   H39       1.0  0.19156  0.55935  0.20587  1.0000
  N   N12       1.0  0.19153  0.66888  0.26763  1.0000
  H   H40       1.0  0.18382  0.71049  0.20960  1.0000
  C   C83       1.0  0.80970  0.43540  0.26000  1.0000
  N   N13       1.0  0.81075  0.40330  0.26484  1.0000
  C   C84       1.0  0.81699  0.30524  0.26676  1.0000
  H   H41       1.0  0.81434  0.44655  0.20470  1.0000
  N   N14       1.0  0.81454  0.33711  0.26846  1.0000
  H   H42       1.0  0.82256  0.29546  0.21200  1.0000
  C   C85       1.0  0.22772  0.44507  0.33837  1.0000
  C   C86       1.0  0.25338  0.39986  0.33278  1.0000
  C   C87       1.0  0.25206  0.42273  0.26298  1.0000
  C   C88       1.0  0.23922  0.44534  0.26747  1.0000
  H   H43       1.0  0.23782  0.46155  0.21694  1.0000
  C   C89       1.0  0.26604  0.37690  0.33139  1.0000
  C   C90       1.0  0.29149  0.33124  0.33289  1.0000
  C   C91       1.0  0.29041  0.35389  0.26308  1.0000
  C   C92       1.0  0.27766  0.37669  0.26042  1.0000
  C   C93       1.0  0.27609  0.39903  0.18992  1.0000
  C   C94       1.0  0.26338  0.42180  0.19107  1.0000
  H   H44       1.0  0.29897  0.35343  0.21300  1.0000
  O   O15       1.0  0.28694  0.39943  0.12056  1.0000
  H   H45       1.0  0.28249  0.38498  0.07484  1.0000
  O   O16       1.0  0.26247  0.44317  0.12272  1.0000
  H   H46       1.0  0.25536  0.43353  0.07698  1.0000
  C   C95       1.0  0.77709  0.56061  0.33875  1.0000
  C   C96       1.0  0.75144  0.60584  0.33248  1.0000
  C   C97       1.0  0.75267  0.58267  0.26342  1.0000
  C   C98       1.0  0.76552  0.56006  0.26826  1.0000
  H   H47       1.0  0.76689  0.54372  0.21802  1.0000
  C   C99       1.0  0.73881  0.62887  0.33054  1.0000
  C   C100      1.0  0.71345  0.67476  0.33083  1.0000
  C   C101      1.0  0.71444  0.65177  0.26185  1.0000
  C   C102      1.0  0.72715  0.62885  0.25979  1.0000
  C   C103      1.0  0.72862  0.60618  0.19008  1.0000
  C   C104      1.0  0.74130  0.58335  0.19175  1.0000
  H   H48       1.0  0.70585  0.65205  0.21192  1.0000
  O   O17       1.0  0.71772  0.60554  0.12099  1.0000
  H   H49       1.0  0.72216  0.61974  0.07464  1.0000
  O   O18       1.0  0.74213  0.56167  0.12412  1.0000
  H   H50       1.0  0.74920  0.57109  0.07784  1.0000
  C   C105      1.0  0.27580  0.92148  0.27263  1.0000
  N   N15       1.0  0.26330  0.90031  0.27733  1.0000
  C   C106      1.0  0.22618  0.83229  0.27759  1.0000
  H   H51       1.0  0.28377  0.91991  0.21999  1.0000
  N   N16       1.0  0.23811  0.85475  0.28015  1.0000
  H   H52       1.0  0.22595  0.81680  0.22486  1.0000
  C   C107      1.0  0.73034  0.08434  0.27247  1.0000
  N   N17       1.0  0.74283  0.10553  0.27753  1.0000
  C   C108      1.0  0.77983  0.17384  0.27952  1.0000
  H   H53       1.0  0.72233  0.08610  0.22009  1.0000
  N   N18       1.0  0.76796  0.15127  0.28147  1.0000
  H   H54       1.0  0.78003  0.18950  0.22720  1.0000
  C   C109      1.0  0.08694  0.40160  0.34322  1.0000
  C   C110      1.0  0.11965  0.42252  0.33851  1.0000
  C   C111      1.0  0.11327  0.40571  0.26364  1.0000
  C   C112      1.0  0.09683  0.39513  0.26769  1.0000
  H   H55       1.0  0.09175  0.38387  0.21361  1.0000
  C   C113      1.0  0.13587  0.43407  0.33724  1.0000
  C   C114      1.0  0.16795  0.45834  0.33781  1.0000
  C   C115      1.0  0.16218  0.44087  0.26335  1.0000
  C   C116      1.0  0.14601  0.42881  0.26126  1.0000
  C   C117      1.0  0.13958  0.41238  0.18626  1.0000
  C   C118      1.0  0.12330  0.40096  0.18737  1.0000
  H   H56       1.0  0.16972  0.43776  0.20925  1.0000
  O   O19       1.0  0.14893  0.40701  0.11219  1.0000
  H   H57       1.0  0.14722  0.42533  0.07242  1.0000
  O   O20       1.0  0.11758  0.38505  0.11430  1.0000
  H   H58       1.0  0.11275  0.40118  0.07462  1.0000
  C   C119      1.0  0.91745  0.60662  0.34120  1.0000
  C   C120      1.0  0.88492  0.58513  0.33446  1.0000
  C   C121      1.0  0.89267  0.59490  0.25370  1.0000
  C   C122      1.0  0.90904  0.60577  0.25855  1.0000
  H   H59       1.0  0.91516  0.61187  0.20118  1.0000
  C   C123      1.0  0.86876  0.57329  0.33290  1.0000
  C   C124      1.0  0.83683  0.54850  0.33361  1.0000
  C   C125      1.0  0.84396  0.55875  0.25240  1.0000
  C   C126      1.0  0.86007  0.57114  0.25055  1.0000
  C   C127      1.0  0.86782  0.58079  0.17010  1.0000
  C   C128      1.0  0.88403  0.59255  0.17165  1.0000
  H   H60       1.0  0.83744  0.55655  0.19412  1.0000
  O   O21       1.0  0.85980  0.57932  0.09013  1.0000
  H   H61       1.0  0.86222  0.55826  0.06491  1.0000
  O   O22       1.0  0.89103  0.60193  0.09312  1.0000
  H   H62       1.0  0.89638  0.58300  0.06796  1.0000
  C   C129      1.0  0.41144  0.91852  0.26248  1.0000
  N   N19       1.0  0.39564  0.92813  0.26714  1.0000
  C   C130      1.0  0.34833  0.96315  0.26716  1.0000
  H   H63       1.0  0.41810  0.92420  0.20675  1.0000
  N   N20       1.0  0.36367  0.95092  0.26970  1.0000
  H   H64       1.0  0.34477  0.97566  0.21178  1.0000
  C   C131      1.0  0.59647  0.09702  0.25882  1.0000
  N   N21       1.0  0.61216  0.08681  0.26478  1.0000
  C   C132      1.0  0.65943  0.05153  0.26462  1.0000
  H   H65       1.0  0.59080  0.09664  0.19774  1.0000
  N   N22       1.0  0.64408  0.06365  0.26775  1.0000
  H   H66       1.0  0.66408  0.04445  0.20422  1.0000
  C   C133      1.0  0.01754  0.44366  0.28527  1.0000
  N   N23       1.0  0.00684  0.46807  0.29186  1.0000
  C   C134      1.0  0.97305  0.54095  0.29316  1.0000
  H   H67       1.0  0.01633  0.42819  0.23292  1.0000
  N   N24       1.0  0.98425  0.51727  0.29609  1.0000
  H   H68       1.0  0.96480  0.54125  0.24169  1.0000
  C   C135      1.0  0.47520  0.94044  0.32942  1.0000
  C   C136      1.0  0.49803  0.99024  0.31968  1.0000
  C   C137      1.0  0.48562  0.98820  0.25322  1.0000
  C   C138      1.0  0.47422  0.96306  0.25960  1.0000
  H   H69       1.0  0.46526  0.96081  0.21205  1.0000
  C   C139      1.0  0.50950  0.01520  0.31752  1.0000
  C   C140      1.0  0.53209  0.06547  0.31988  1.0000
  C   C141      1.0  0.52009  0.06375  0.25179  1.0000
  C   C142      1.0  0.50867  0.03857  0.24906  1.0000
  C   C143      1.0  0.49653  0.03615  0.18166  1.0000
  C   C144      1.0  0.48507  0.01104  0.18366  1.0000
  H   H70       1.0  0.51972  0.08106  0.20366  1.0000
  O   O23       1.0  0.49530  0.05835  0.11559  1.0000
  H   H71       1.0  0.50230  0.05087  0.06630  1.0000
  O   O24       1.0  0.47323  0.00996  0.11941  1.0000
  H   H72       1.0  0.47771  0.99698  0.07038  1.0000
  C   C145      1.0  0.47862  0.34003  0.33029  1.0000
  C   C146      1.0  0.46154  0.33567  0.33483  1.0000
  C   C147      1.0  0.45077  0.36193  0.33828  1.0000
  C   C148      1.0  0.45748  0.39299  0.33877  1.0000
  C   C149      1.0  0.47461  0.39802  0.33170  1.0000
  C   C150      1.0  0.48498  0.37112  0.32773  1.0000
  H   H73       1.0  0.44976  0.41214  0.33983  1.0000
  H   H74       1.0  0.49743  0.37412  0.32475  1.0000
  H   H75       1.0  0.45690  0.31305  0.33543  1.0000
  C   C151      1.0  0.52626  0.66519  0.34366  1.0000
  C   C152      1.0  0.54336  0.66966  0.34123  1.0000
  C   C153      1.0  0.55419  0.64347  0.34097  1.0000
  C   C154      1.0  0.54752  0.61240  0.34369  1.0000
  C   C155      1.0  0.53035  0.60730  0.34611  1.0000
  C   C156      1.0  0.51990  0.63409  0.34570  1.0000
  H   H76       1.0  0.55526  0.59328  0.34343  1.0000
  H   H77       1.0  0.50745  0.63098  0.34540  1.0000
  H   H78       1.0  0.54796  0.69231  0.33984  1.0000
  C   C157      1.0  0.02684  0.83997  0.34723  1.0000
  C   C158      1.0  0.04392  0.83560  0.34268  1.0000
  C   C159      1.0  0.05470  0.86185  0.33922  1.0000
  C   C160      1.0  0.04800  0.89291  0.33863  1.0000
  C   C161      1.0  0.03086  0.89795  0.34583  1.0000
  C   C162      1.0  0.02048  0.87106  0.34980  1.0000
  H   H79       1.0  0.05572  0.91205  0.33772  1.0000
  H   H80       1.0  0.00804  0.87407  0.35282  1.0000
  H   H81       1.0  0.04855  0.81297  0.34210  1.0000
  C   C163      1.0  0.97923  0.16512  0.33391  1.0000
  C   C164      1.0  0.96213  0.16961  0.33643  1.0000
  C   C165      1.0  0.95129  0.14343  0.33665  1.0000
  C   C166      1.0  0.95795  0.11236  0.33384  1.0000
  C   C167      1.0  0.97513  0.10724  0.33139  1.0000
  C   C168      1.0  0.98558  0.13401  0.33180  1.0000
  H   H82       1.0  0.95021  0.09324  0.33406  1.0000
  H   H83       1.0  0.99803  0.13090  0.33204  1.0000
  H   H84       1.0  0.95754  0.19226  0.33784  1.0000
  C   C169      1.0  0.33423  0.29760  0.34127  1.0000
  C   C170      1.0  0.33075  0.26472  0.34178  1.0000
  C   C171      1.0  0.31445  0.25335  0.33991  1.0000
  C   C172      1.0  0.30149  0.27567  0.33702  1.0000
  C   C173      1.0  0.30458  0.30879  0.33639  1.0000
  C   C174      1.0  0.32104  0.31932  0.33878  1.0000
  H   H85       1.0  0.28965  0.26769  0.33505  1.0000
  H   H86       1.0  0.32347  0.34319  0.33849  1.0000
  H   H87       1.0  0.34023  0.24880  0.34342  1.0000
  C   C175      1.0  0.67071  0.70854  0.33800  1.0000
  C   C176      1.0  0.67422  0.74141  0.33891  1.0000
  C   C177      1.0  0.69052  0.75276  0.33765  1.0000
  C   C178      1.0  0.70347  0.73040  0.33489  1.0000
  C   C179      1.0  0.70037  0.69729  0.33385  1.0000
  C   C180      1.0  0.68390  0.68680  0.33572  1.0000
  H   H88       1.0  0.71531  0.73835  0.33348  1.0000
  H   H89       1.0  0.68146  0.66294  0.33534  1.0000
  H   H90       1.0  0.66474  0.75734  0.34066  1.0000
  C   C181      1.0  0.17125  0.79759  0.33633  1.0000
  C   C182      1.0  0.17474  0.76471  0.33583  1.0000
  C   C183      1.0  0.19104  0.75335  0.33769  1.0000
  C   C184      1.0  0.20399  0.77568  0.34058  1.0000
  C   C185      1.0  0.20090  0.80879  0.34121  1.0000
  C   C186      1.0  0.18444  0.81932  0.33882  1.0000
  H   H91       1.0  0.21583  0.76770  0.34253  1.0000
  H   H92       1.0  0.18201  0.84318  0.33912  1.0000
  H   H93       1.0  0.16526  0.74879  0.33419  1.0000
  C   C187      1.0  0.83478  0.20852  0.33954  1.0000
  C   C188      1.0  0.83126  0.24140  0.33865  1.0000
  C   C189      1.0  0.81496  0.25274  0.33991  1.0000
  C   C190      1.0  0.80201  0.23038  0.34260  1.0000
  C   C191      1.0  0.80511  0.19727  0.34361  1.0000
  C   C192      1.0  0.82158  0.18679  0.34178  1.0000
  H   H94       1.0  0.79017  0.23834  0.34401  1.0000
  H   H95       1.0  0.82403  0.16293  0.34215  1.0000
  H   H96       1.0  0.84074  0.25733  0.33693  1.0000
  C   C193      1.0  0.04157  0.41477  0.34298  1.0000
  C   C194      1.0  0.03591  0.38325  0.33493  1.0000
  C   C195      1.0  0.04694  0.35750  0.33127  1.0000
  C   C196      1.0  0.06395  0.36342  0.33461  1.0000
  C   C197      1.0  0.06993  0.39484  0.34243  1.0000
  C   C198      1.0  0.05862  0.42019  0.34723  1.0000
  H   H97       1.0  0.07200  0.34479  0.33259  1.0000
  H   H98       1.0  0.06286  0.44305  0.35109  1.0000
  H   H99       1.0  0.02356  0.37890  0.33479  1.0000
  C   C199      1.0  0.96245  0.59144  0.35292  1.0000
  C   C200      1.0  0.96853  0.62280  0.35224  1.0000
  C   C201      1.0  0.95786  0.64908  0.34705  1.0000
  C   C202      1.0  0.94078  0.64390  0.34326  1.0000
  C   C203      1.0  0.93447  0.61264  0.34430  1.0000
  C   C204      1.0  0.94537  0.58665  0.34847  1.0000
  H   H100      1.0  0.93295  0.66287  0.34030  1.0000
  H   H101      1.0  0.94081  0.56397  0.34967  1.0000
  H   H102      1.0  0.98093  0.62657  0.35465  1.0000
  C   C205      1.0  0.46392  0.91486  0.33492  1.0000
  C   C206      1.0  0.46959  0.88335  0.34308  1.0000
  C   C207      1.0  0.45857  0.85759  0.34656  1.0000
  C   C208      1.0  0.44155  0.86351  0.34311  1.0000
  C   C209      1.0  0.43557  0.89491  0.33529  1.0000
  C   C210      1.0  0.44688  0.92027  0.33057  1.0000
  H   H103      1.0  0.43351  0.84486  0.34498  1.0000
  H   H104      1.0  0.44263  0.94313  0.32668  1.0000
  H   H105      1.0  0.48195  0.87901  0.34312  1.0000
  C   C211      1.0  0.54305  0.09153  0.32480  1.0000
  C   C212      1.0  0.53696  0.12289  0.32531  1.0000
  C   C213      1.0  0.54763  0.14919  0.33043  1.0000
  C   C214      1.0  0.56470  0.14403  0.33423  1.0000
  C   C215      1.0  0.57102  0.11278  0.33341  1.0000
  C   C216      1.0  0.56013  0.08676  0.32934  1.0000
  H   H106      1.0  0.57252  0.16301  0.33714  1.0000
  H   H107      1.0  0.56470  0.06409  0.32826  1.0000
  H   H108      1.0  0.52456  0.12665  0.32289  1.0000
  C   C217      1.0  0.18384  0.47187  0.33811  1.0000
  C   C218      1.0  0.18577  0.50516  0.33671  1.0000
  C   C219      1.0  0.20147  0.51928  0.33525  1.0000
  C   C220      1.0  0.21543  0.49928  0.33657  1.0000
  C   C221      1.0  0.21384  0.46572  0.33853  1.0000
  C   C222      1.0  0.19792  0.45245  0.33854  1.0000
  H   H109      1.0  0.22685  0.50926  0.33605  1.0000
  H   H110      1.0  0.19652  0.42827  0.33874  1.0000
  H   H111      1.0  0.17556  0.51932  0.33615  1.0000
  C   C223      1.0  0.82107  0.53463  0.33491  1.0000
  C   C224      1.0  0.81937  0.50134  0.33202  1.0000
  C   C225      1.0  0.80375  0.48686  0.33226  1.0000
  C   C226      1.0  0.78969  0.50659  0.33560  1.0000
  C   C227      1.0  0.79107  0.54019  0.33845  1.0000
  C   C228      1.0  0.80692  0.55379  0.33797  1.0000
  H   H112      1.0  0.77832  0.49637  0.33582  1.0000
  H   H113      1.0  0.80822  0.57799  0.33852  1.0000
  H   H114      1.0  0.82968  0.48746  0.33040  1.0000
  C   C229      1.0  0.32165  0.97189  0.33948  1.0000
  C   C230      1.0  0.31971  0.00518  0.34088  1.0000
  C   C231      1.0  0.30401  0.01928  0.34235  1.0000
  C   C232      1.0  0.29005  0.99926  0.34106  1.0000
  C   C233      1.0  0.29165  0.96570  0.33908  1.0000
  C   C234      1.0  0.30758  0.95246  0.33906  1.0000
  H   H115      1.0  0.27862  0.00923  0.34159  1.0000
  H   H116      1.0  0.30898  0.92828  0.33886  1.0000
  H   H117      1.0  0.32991  0.01935  0.34142  1.0000
  C   C235      1.0  0.68441  0.03469  0.34266  1.0000
  C   C236      1.0  0.68610  0.00140  0.34567  1.0000
  C   C237      1.0  0.70171  0.98689  0.34533  1.0000
  C   C238      1.0  0.71578  0.00661  0.34189  1.0000
  C   C239      1.0  0.71440  0.04021  0.33897  1.0000
  C   C240      1.0  0.69856  0.05383  0.33946  1.0000
  H   H118      1.0  0.72715  0.99638  0.34164  1.0000
  H   H119      1.0  0.69727  0.07804  0.33883  1.0000
  H   H120      1.0  0.67578  0.98754  0.34735  1.0000
  C   C241      1.0  0.51114  0.56721  0.40704  1.0000
  N   N25       1.0  0.50348  0.53874  0.39987  1.0000
  C   C242      1.0  0.47838  0.45248  0.39259  1.0000
  H   H121      1.0  0.50781  0.58203  0.45815  1.0000
  N   N26       1.0  0.48668  0.48045  0.39204  1.0000
  H   H122      1.0  0.47028  0.44824  0.44341  1.0000
  C   C243      1.0  0.98213  0.07617  0.33269  1.0000
  C   C244      1.0  0.99876  0.01733  0.34361  1.0000
  C   C245      1.0  0.98664  0.02485  0.40873  1.0000
  C   C246      1.0  0.97837  0.05432  0.40164  1.0000
  H   H123      1.0  0.96994  0.06058  0.44923  1.0000
  C   C247      1.0  0.00729  0.98812  0.34776  1.0000
  C   C248      1.0  0.02379  0.92898  0.35020  1.0000
  C   C249      1.0  0.01208  0.93663  0.41683  1.0000
  C   C250      1.0  0.00372  0.96605  0.41707  1.0000
  C   C251      1.0  0.99188  0.97383  0.48289  1.0000
  C   C252      1.0  0.98342  0.00305  0.47882  1.0000
  H   H124      1.0  0.00951  0.92025  0.46555  1.0000
  O   O25       1.0  0.98804  0.95306  0.54966  1.0000
  H   H125      1.0  0.99558  0.95772  0.59933  1.0000
  O   O26       1.0  0.97183  0.00933  0.54203  1.0000
  H   H126      1.0  0.97754  0.02018  0.59136  1.0000
  C   C253      1.0  0.35073  0.30850  0.34295  1.0000
  C   C254      1.0  0.38369  0.32867  0.34442  1.0000
  C   C255      1.0  0.37360  0.33547  0.41964  1.0000
  C   C256      1.0  0.35702  0.32551  0.41703  1.0000
  H   H127      1.0  0.34951  0.32999  0.47045  1.0000
  C   C257      1.0  0.40026  0.33843  0.34347  1.0000
  C   C258      1.0  0.43357  0.35633  0.33889  1.0000
  C   C259      1.0  0.42376  0.36395  0.41394  1.0000
  C   C260      1.0  0.40705  0.35492  0.41789  1.0000
  C   C261      1.0  0.39705  0.36102  0.49356  1.0000
  C   C262      1.0  0.38045  0.35145  0.49433  1.0000
  H   H128      1.0  0.42907  0.37509  0.46756  1.0000
  O   O27       1.0  0.40313  0.37662  0.56631  1.0000
  H   H129      1.0  0.40744  0.36016  0.60670  1.0000
  O   O28       1.0  0.37118  0.35824  0.56778  1.0000
  H   H130      1.0  0.37223  0.33988  0.60813  1.0000
  C   C263      1.0  0.65420  0.69761  0.33996  1.0000
  C   C264      1.0  0.62126  0.67716  0.34235  1.0000
  C   C265      1.0  0.63158  0.66962  0.41605  1.0000
  C   C266      1.0  0.64813  0.67972  0.41296  1.0000
  H   H131      1.0  0.65580  0.67472  0.46536  1.0000
  C   C267      1.0  0.60471  0.66727  0.34201  1.0000
  C   C268      1.0  0.57139  0.64914  0.33926  1.0000
  C   C269      1.0  0.58149  0.64077  0.41252  1.0000
  C   C270      1.0  0.59819  0.64990  0.41558  1.0000
  C   C271      1.0  0.60842  0.64307  0.48979  1.0000
  C   C272      1.0  0.62500  0.65278  0.48993  1.0000
  H   H132      1.0  0.57640  0.62904  0.46576  1.0000
  O   O29       1.0  0.60260  0.62666  0.56173  1.0000
  H   H133      1.0  0.59836  0.64264  0.60383  1.0000
  O   O30       1.0  0.63449  0.64531  0.56198  1.0000
  H   H134      1.0  0.63353  0.66323  0.60392  1.0000
  C   C273      1.0  0.14397  0.80196  0.40626  1.0000
  N   N27       1.0  0.12824  0.81224  0.40337  1.0000
  C   C274      1.0  0.07943  0.83966  0.40991  1.0000
  H   H135      1.0  0.14786  0.78977  0.46156  1.0000
  N   N28       1.0  0.09547  0.83157  0.40541  1.0000
  H   H136      1.0  0.07290  0.83315  0.46538  1.0000
  C   C275      1.0  0.86229  0.20483  0.40766  1.0000
  N   N29       1.0  0.87799  0.19438  0.40442  1.0000
  C   C276      1.0  0.92684  0.16657  0.40878  1.0000
  H   H137      1.0  0.85857  0.21762  0.46220  1.0000
  N   N30       1.0  0.91080  0.17476  0.40520  1.0000
  H   H138      1.0  0.93359  0.17365  0.46290  1.0000
  C   C277      1.0  0.53345  0.19236  0.40778  1.0000
  N   N31       1.0  0.52397  0.21870  0.40280  1.0000
  C   C278      1.0  0.49295  0.29634  0.40556  1.0000
  H   H139      1.0  0.53455  0.18100  0.46804  1.0000
  N   N32       1.0  0.50332  0.27126  0.40157  1.0000
  H   H140      1.0  0.48803  0.30255  0.46608  1.0000
  C   C279      1.0  0.47281  0.81447  0.42437  1.0000
  N   N33       1.0  0.48199  0.78775  0.41915  1.0000
  C   C280      1.0  0.51241  0.70920  0.42020  1.0000
  H   H141      1.0  0.47220  0.82631  0.48409  1.0000
  N   N34       1.0  0.50217  0.73448  0.41693  1.0000
  H   H142      1.0  0.51766  0.70320  0.48006  1.0000
  C   C281      1.0  0.96472  0.67987  0.34772  1.0000
  C   C282      1.0  0.98448  0.73446  0.35235  1.0000
  C   C283      1.0  0.97740  0.72328  0.43348  1.0000
  C   C284      1.0  0.96752  0.69570  0.42976  1.0000
  H   H143      1.0  0.96288  0.68619  0.48761  1.0000
  C   C285      1.0  0.99495  0.76110  0.35300  1.0000
  C   C286      1.0  0.01618  0.81354  0.35033  1.0000
  C   C287      1.0  0.00887  0.80388  0.43165  1.0000
  C   C288      1.0  0.99830  0.77727  0.43460  1.0000
  C   C289      1.0  0.99123  0.76614  0.51537  1.0000
  C   C290      1.0  0.98091  0.73919  0.51489  1.0000
  H   H144      1.0  0.01154  0.81606  0.48923  1.0000
  O   O31       1.0  0.99409  0.78120  0.59466  1.0000
  H   H145      1.0  0.00384  0.77107  0.62068  1.0000
  O   O32       1.0  0.97424  0.72924  0.59374  1.0000
  H   H146      1.0  0.98212  0.71423  0.61999  1.0000
  C   C291      1.0  0.04046  0.32639  0.33074  1.0000
  C   C292      1.0  0.02118  0.27118  0.33593  1.0000
  C   C293      1.0  0.02859  0.28212  0.41642  1.0000
  C   C294      1.0  0.03829  0.30992  0.41235  1.0000
  H   H147      1.0  0.04311  0.31928  0.46995  1.0000
  C   C295      1.0  0.01088  0.24428  0.33710  1.0000
  C   C296      1.0  0.98991  0.19149  0.33578  1.0000
  C   C297      1.0  0.99747  0.20106  0.41644  1.0000
  C   C298      1.0  0.00796  0.22778  0.41868  1.0000
  C   C299      1.0  0.01533  0.23874  0.49884  1.0000
  C   C300      1.0  0.02554  0.26582  0.49777  1.0000
  H   H148      1.0  0.99507  0.18870  0.47407  1.0000
  O   O33       1.0  0.01285  0.22338  0.57807  1.0000
  H   H149      1.0  0.00316  0.23328  0.60553  1.0000
  O   O34       1.0  0.03250  0.27561  0.57605  1.0000
  H   H150      1.0  0.02465  0.29037  0.60374  1.0000
  C   C301      1.0  0.30942  0.07057  0.41616  1.0000
  N   N35       1.0  0.31037  0.10270  0.41199  1.0000
  C   C302      1.0  0.31629  0.20077  0.41252  1.0000
  H   H151      1.0  0.31391  0.05935  0.47171  1.0000
  N   N36       1.0  0.31395  0.16889  0.40997  1.0000
  H   H152      1.0  0.32165  0.21049  0.46803  1.0000
  C   C303      1.0  0.69569  0.93544  0.41742  1.0000
  N   N37       1.0  0.69465  0.90334  0.41262  1.0000
  C   C304      1.0  0.68842  0.80528  0.41066  1.0000
  H   H153      1.0  0.69100  0.94660  0.47261  1.0000
  N   N38       1.0  0.69087  0.83715  0.40898  1.0000
  H   H154      1.0  0.68280  0.79551  0.46529  1.0000
  C   C305      1.0  0.20262  0.55304  0.33368  1.0000
  C   C306      1.0  0.20019  0.61999  0.33737  1.0000
  C   C307      1.0  0.20692  0.60388  0.41262  1.0000
  C   C308      1.0  0.20814  0.57029  0.40917  1.0000
  H   H155      1.0  0.21242  0.55805  0.46365  1.0000
  C   C309      1.0  0.19840  0.65342  0.33832  1.0000
  C   C310      1.0  0.19414  0.72004  0.33765  1.0000
  C   C311      1.0  0.20140  0.70474  0.41209  1.0000
  C   C312      1.0  0.20345  0.67130  0.41429  1.0000
  C   C313      1.0  0.20997  0.65516  0.48957  1.0000
  C   C314      1.0  0.21165  0.62173  0.48884  1.0000
  H   H156      1.0  0.20472  0.71811  0.46644  1.0000
  O   O35       1.0  0.21486  0.67146  0.56377  1.0000
  H   H157      1.0  0.20522  0.67279  0.60314  1.0000
  O   O36       1.0  0.21807  0.60714  0.56237  1.0000
  H   H158      1.0  0.20876  0.60218  0.60176  1.0000
  C   C315      1.0  0.80277  0.45304  0.33109  1.0000
  C   C316      1.0  0.80547  0.38608  0.33631  1.0000
  C   C317      1.0  0.79839  0.40227  0.41046  1.0000
  C   C318      1.0  0.79703  0.43583  0.40620  1.0000
  H   H159      1.0  0.79251  0.44811  0.46000  1.0000
  C   C319      1.0  0.80737  0.35267  0.33808  1.0000
  C   C320      1.0  0.81183  0.28606  0.33912  1.0000
  C   C321      1.0  0.80426  0.30147  0.41246  1.0000
  C   C322      1.0  0.80210  0.33489  0.41380  1.0000
  C   C323      1.0  0.79525  0.35112  0.48804  1.0000
  C   C324      1.0  0.79345  0.38453  0.48648  1.0000
  H   H160      1.0  0.80075  0.28818  0.46660  1.0000
  O   O37       1.0  0.79015  0.33493  0.56200  1.0000
  H   H161      1.0  0.79965  0.33381  0.60241  1.0000
  O   O38       1.0  0.78670  0.39919  0.55901  1.0000
  H   H162      1.0  0.79585  0.40440  0.59931  1.0000
  C   C325      1.0  0.22970  0.42151  0.40501  1.0000
  N   N39       1.0  0.24219  0.40033  0.40030  1.0000
  C   C326      1.0  0.27930  0.33229  0.40003  1.0000
  H   H163      1.0  0.22173  0.41995  0.45764  1.0000
  N   N40       1.0  0.26738  0.35476  0.39746  1.0000
  H   H164      1.0  0.27953  0.31681  0.45276  1.0000
  C   C327      1.0  0.77517  0.58441  0.40477  1.0000
  N   N41       1.0  0.76268  0.60559  0.39971  1.0000
  C   C328      1.0  0.72569  0.67392  0.39773  1.0000
  H   H165      1.0  0.78321  0.58621  0.45703  1.0000
  N   N42       1.0  0.73756  0.65134  0.39579  1.0000
  H   H166      1.0  0.72551  0.68961  0.44997  1.0000
  C   C329      1.0  0.27777  0.94504  0.33927  1.0000
  C   C330      1.0  0.25211  0.89984  0.34483  1.0000
  C   C331      1.0  0.25342  0.92272  0.41462  1.0000
  C   C332      1.0  0.26628  0.94532  0.41016  1.0000
  H   H167      1.0  0.26766  0.96155  0.46065  1.0000
  C   C333      1.0  0.23944  0.87690  0.34621  1.0000
  C   C334      1.0  0.21399  0.83125  0.34468  1.0000
  C   C335      1.0  0.21507  0.85390  0.41448  1.0000
  C   C336      1.0  0.22782  0.87670  0.41715  1.0000
  C   C337      1.0  0.22938  0.89904  0.48764  1.0000
  C   C338      1.0  0.24210  0.92180  0.48651  1.0000
  H   H168      1.0  0.20650  0.85345  0.46455  1.0000
  O   O39       1.0  0.21853  0.89945  0.55698  1.0000
  H   H169      1.0  0.22298  0.88501  0.60272  1.0000
  O   O40       1.0  0.24301  0.94318  0.55485  1.0000
  H   H170      1.0  0.25012  0.93354  0.60061  1.0000
  C   C339      1.0  0.72838  0.06062  0.33866  1.0000
  C   C340      1.0  0.75404  0.10583  0.34493  1.0000
  C   C341      1.0  0.75277  0.08274  0.41416  1.0000
  C   C342      1.0  0.73993  0.06013  0.40933  1.0000
  H   H171      1.0  0.73853  0.04383  0.45965  1.0000
  C   C343      1.0  0.76667  0.12886  0.34688  1.0000
  C   C344      1.0  0.79203  0.17475  0.34660  1.0000
  C   C345      1.0  0.79101  0.15182  0.41574  1.0000
  C   C346      1.0  0.77830  0.12891  0.41778  1.0000
  C   C347      1.0  0.77680  0.10631  0.48764  1.0000
  C   C348      1.0  0.76411  0.08347  0.48598  1.0000
  H   H172      1.0  0.79957  0.15215  0.46579  1.0000
  O   O41       1.0  0.78766  0.10572  0.55690  1.0000
  H   H173      1.0  0.78320  0.11997  0.60308  1.0000
  O   O42       1.0  0.76325  0.06186  0.55376  1.0000
  H   H174      1.0  0.75616  0.07134  0.59988  1.0000
  C   C349      1.0  0.09407  0.41843  0.41519  1.0000
  N   N43       1.0  0.10986  0.42806  0.41050  1.0000
  C   C350      1.0  0.15717  0.46308  0.41047  1.0000
  H   H175      1.0  0.08740  0.42411  0.47092  1.0000
  N   N44       1.0  0.14183  0.45085  0.40792  1.0000
  H   H176      1.0  0.16073  0.47557  0.46589  1.0000
  C   C351      1.0  0.90908  0.59657  0.41883  1.0000
  N   N45       1.0  0.89338  0.58641  0.41286  1.0000
  C   C352      1.0  0.84611  0.55113  0.41292  1.0000
  H   H177      1.0  0.91478  0.59598  0.47980  1.0000
  N   N46       1.0  0.86146  0.56327  0.40984  1.0000
  H   H178      1.0  0.84150  0.54382  0.47320  1.0000
  C   C353      1.0  0.41856  0.90168  0.33442  1.0000
  C   C354      1.0  0.38584  0.92257  0.33909  1.0000
  C   C355      1.0  0.39222  0.90573  0.41392  1.0000
  C   C356      1.0  0.40866  0.89518  0.40992  1.0000
  H   H179      1.0  0.41374  0.88388  0.46396  1.0000
  C   C357      1.0  0.36963  0.93411  0.34035  1.0000
  C   C358      1.0  0.33755  0.95838  0.33979  1.0000
  C   C359      1.0  0.34331  0.94087  0.41418  1.0000
  C   C360      1.0  0.35948  0.92881  0.41628  1.0000
  C   C361      1.0  0.36590  0.91236  0.49125  1.0000
  C   C362      1.0  0.38218  0.90095  0.49016  1.0000
  H   H180      1.0  0.33576  0.93774  0.46827  1.0000
  O   O43       1.0  0.35655  0.90695  0.56528  1.0000
  H   H181      1.0  0.35826  0.92527  0.60511  1.0000
  O   O44       1.0  0.38790  0.88502  0.56320  1.0000
  H   H182      1.0  0.39272  0.90114  0.60294  1.0000
  C   C363      1.0  0.58804  0.10678  0.33657  1.0000
  C   C364      1.0  0.62057  0.08523  0.34330  1.0000
  C   C365      1.0  0.61277  0.09469  0.42420  1.0000
  C   C366      1.0  0.59639  0.10557  0.41936  1.0000
  H   H183      1.0  0.59024  0.11147  0.47679  1.0000
  C   C367      1.0  0.63673  0.07339  0.34483  1.0000
  C   C368      1.0  0.66865  0.04858  0.34404  1.0000
  C   C369      1.0  0.66146  0.05850  0.42541  1.0000
  C   C370      1.0  0.64536  0.07091  0.42730  1.0000
  C   C371      1.0  0.63756  0.08028  0.50787  1.0000
  C   C372      1.0  0.62135  0.09205  0.50635  1.0000
  H   H184      1.0  0.66794  0.05608  0.48376  1.0000
  O   O45       1.0  0.64553  0.07853  0.58794  1.0000
  H   H185      1.0  0.64309  0.05739  0.61256  1.0000
  O   O46       1.0  0.61430  0.10117  0.58500  1.0000
  H   H186      1.0  0.60894  0.08215  0.60956  1.0000
  C   C373      1.0  0.03029  0.44034  0.34848  1.0000
  C   C374      1.0  0.00747  0.49015  0.35817  1.0000
  C   C375      1.0  0.01988  0.48811  0.42462  1.0000
  C   C376      1.0  0.03128  0.46297  0.41828  1.0000
  H   H187      1.0  0.04024  0.46073  0.46581  1.0000
  C   C377      1.0  0.99600  0.51511  0.36028  1.0000
  C   C378      1.0  0.97341  0.56538  0.35787  1.0000
  C   C379      1.0  0.98542  0.56369  0.42593  1.0000
  C   C380      1.0  0.99684  0.53851  0.42870  1.0000
  C   C381      1.0  0.00898  0.53609  0.49610  1.0000
  C   C382      1.0  0.02043  0.51097  0.49415  1.0000
  H   H188      1.0  0.98579  0.58100  0.47405  1.0000
  O   O47       1.0  0.01021  0.55831  0.56213  1.0000
  H   H189      1.0  0.00321  0.55083  0.61145  1.0000
  O   O48       1.0  0.03227  0.50990  0.55840  1.0000
  H   H190      1.0  0.02780  0.49693  0.60744  1.0000
  C   C383      1.0  0.48795  0.94378  0.39266  1.0000
  N   N47       1.0  0.49866  0.96818  0.38603  1.0000
  C   C384      1.0  0.53246  0.04103  0.38458  1.0000
  H   H191      1.0  0.48917  0.92830  0.44499  1.0000
  N   N48       1.0  0.52126  0.01736  0.38171  1.0000
  H   H192      1.0  0.54070  0.04136  0.43612  1.0000
