data_image0
_chemical_formula_structural       C4HC4H2NO2C4H4C4H4C4H4C4HC4H2NO2C4HC4H2NO2C4HC4H2NO2C4HC4H2NO2C4H4C4H4C4HC4H2NO2C4HC4H2NO2C4H4C4H4C4HC4H2NO2C4HC4H2NO2C4H4C4H4C4HC4H2NO2C4HC4H2NO2C4H4C4H4C4H4C4HC4H2NO2CNCNCNCNCNCNCNCNCNCNCNCNCNCNCNCNCNCNCNCNCNCNCNCNCNCNCNCNCNCNCNCNCNCNCNCNCNCNCNCNCNCNCNCNCNCNCNCNC4H4C4HC4H2NO2C4HC4H2NO2C4HC4H2NO2C4H4C4H4C4H4C4H4C4HC4H2NO2C4HC4H2NO2C4H4C4H4C4HC4H2NO2C4HC4H2NO2C4H4C4H4C4HC4H2NO2C4HC4H2NO2C4H4C4H4C4HC4H2NO2C4HC4H2NO2C4HC4H2NO2C4H4
_chemical_formula_sum              "C336 H168 N72 O48"
_cell_length_a       81.9501
_cell_length_b       42.2518
_cell_length_c       14.8809
_cell_angle_alpha    90
_cell_angle_beta     90
_cell_angle_gamma    90

_space_group_name_H-M_alt    "P 1"
_space_group_IT_number       1

loop_
  _space_group_symop_operation_xyz
  'x, y, z'

loop_
  _atom_site_type_symbol
  _atom_site_label
  _atom_site_symmetry_multiplicity
  _atom_site_fract_x
  _atom_site_fract_y
  _atom_site_fract_z
  _atom_site_occupancy
  C   C1        1.0  0.52358  0.58019  0.35279  1.0000
  C   C2        1.0  0.50855  0.51869  0.35140  1.0000
  C   C3        1.0  0.52410  0.52348  0.31092  1.0000
  C   C4        1.0  0.53145  0.55391  0.31307  1.0000
  H   H1        1.0  0.54246  0.55701  0.28181  1.0000
  C   C5        1.0  0.50065  0.48843  0.35387  1.0000
  C   C6        1.0  0.48516  0.42730  0.35878  1.0000
  C   C7        1.0  0.50146  0.43165  0.38840  1.0000
  C   C8        1.0  0.50899  0.46154  0.38674  1.0000
  H   H2        1.0  0.50814  0.41299  0.41225  1.0000
  H   H3        1.0  0.52068  0.46347  0.41028  1.0000
  N   N1        1.0  0.53180  0.49820  0.26488  1.0000
  O   O1        1.0  0.54561  0.49215  0.29733  1.0000
  O   O2        1.0  0.53342  0.50417  0.18261  1.0000
  C   C9        1.0  0.99994  0.07505  0.29118  1.0000
  C   C10       1.0  0.00723  0.04495  0.29144  1.0000
  C   C11       1.0  0.02378  0.98443  0.35715  1.0000
  C   C12       1.0  0.03139  0.95448  0.35455  1.0000
  H   H4        1.0  0.03028  0.00329  0.38130  1.0000
  H   H5        1.0  0.04314  0.95258  0.37726  1.0000
  H   H6        1.0  0.00609  0.09322  0.26088  1.0000
  H   H7        1.0  0.01833  0.04236  0.26067  1.0000
  C   C13       1.0  0.35827  0.34078  0.31886  1.0000
  C   C14       1.0  0.37487  0.34957  0.31843  1.0000
  C   C15       1.0  0.40967  0.36818  0.37767  1.0000
  C   C16       1.0  0.42641  0.37611  0.37474  1.0000
  H   H8        1.0  0.40167  0.38409  0.40500  1.0000
  H   H9        1.0  0.42999  0.39750  0.40021  1.0000
  H   H10       1.0  0.34996  0.35589  0.29067  1.0000
  H   H11       1.0  0.37800  0.37075  0.28985  1.0000
  C   C17       1.0  0.65011  0.66824  0.31237  1.0000
  C   C18       1.0  0.63355  0.65918  0.31075  1.0000
  C   C19       1.0  0.59874  0.64045  0.36867  1.0000
  C   C20       1.0  0.58205  0.63213  0.36575  1.0000
  H   H12       1.0  0.60678  0.62502  0.39783  1.0000
  H   H13       1.0  0.57855  0.61097  0.39306  1.0000
  H   H14       1.0  0.65858  0.65296  0.28656  1.0000
  H   H15       1.0  0.63062  0.63765  0.28364  1.0000
  C   C21       1.0  0.15480  0.81108  0.32931  1.0000
  C   C22       1.0  0.12090  0.82933  0.32847  1.0000
  C   C23       1.0  0.12592  0.79998  0.29038  1.0000
  C   C24       1.0  0.14263  0.79122  0.29228  1.0000
  H   H16       1.0  0.14590  0.76997  0.26454  1.0000
  C   C25       1.0  0.10402  0.83833  0.33400  1.0000
  C   C26       1.0  0.06982  0.85440  0.33923  1.0000
  C   C27       1.0  0.07563  0.82497  0.37195  1.0000
  C   C28       1.0  0.09233  0.81729  0.37039  1.0000
  H   H17       1.0  0.06772  0.80859  0.39782  1.0000
  H   H18       1.0  0.09586  0.79586  0.39582  1.0000
  N   N2        1.0  0.11431  0.78009  0.24801  1.0000
  O   O3        1.0  0.11380  0.75315  0.28381  1.0000
  O   O4        1.0  0.11734  0.77680  0.16573  1.0000
  C   C29       1.0  0.85309  0.19836  0.33804  1.0000
  C   C30       1.0  0.88692  0.17960  0.34021  1.0000
  C   C31       1.0  0.88218  0.20941  0.30399  1.0000
  C   C32       1.0  0.86550  0.21840  0.30437  1.0000
  H   H19       1.0  0.86244  0.23996  0.27787  1.0000
  C   C33       1.0  0.90373  0.17014  0.34641  1.0000
  C   C34       1.0  0.93782  0.15329  0.35174  1.0000
  C   C35       1.0  0.93214  0.18246  0.38688  1.0000
  C   C36       1.0  0.91548  0.19050  0.38529  1.0000
  H   H20       1.0  0.94011  0.19840  0.41427  1.0000
  H   H21       1.0  0.91203  0.21175  0.41227  1.0000
  N   N3        1.0  0.89405  0.22955  0.26481  1.0000
  O   O5        1.0  0.89452  0.25609  0.30298  1.0000
  O   O6        1.0  0.89139  0.23375  0.18249  1.0000
  C   C37       1.0  0.49333  0.31537  0.35411  1.0000
  C   C38       1.0  0.51557  0.26369  0.35986  1.0000
  C   C39       1.0  0.51031  0.27600  0.27573  1.0000
  C   C40       1.0  0.49927  0.30184  0.27393  1.0000
  H   H22       1.0  0.49537  0.31047  0.21328  1.0000
  C   C41       1.0  0.52522  0.23571  0.36606  1.0000
  C   C42       1.0  0.54262  0.17697  0.36709  1.0000
  C   C43       1.0  0.54946  0.20428  0.32702  1.0000
  C   C44       1.0  0.54082  0.23317  0.32588  1.0000
  H   H23       1.0  0.56037  0.20293  0.29371  1.0000
  H   H24       1.0  0.54585  0.25221  0.29366  1.0000
  N   N4        1.0  0.51561  0.26160  0.19485  1.0000
  O   O7        1.0  0.52326  0.28086  0.14621  1.0000
  O   O8        1.0  0.50384  0.25060  0.15058  1.0000
  C   C45       1.0  0.51491  0.69305  0.34168  1.0000
  C   C46       1.0  0.49348  0.74656  0.34830  1.0000
  C   C47       1.0  0.50967  0.74999  0.31536  1.0000
  C   C48       1.0  0.52011  0.72332  0.31289  1.0000
  H   H25       1.0  0.53173  0.72636  0.28917  1.0000
  C   C49       1.0  0.48306  0.77322  0.35988  1.0000
  C   C50       1.0  0.46463  0.83048  0.36867  1.0000
  C   C51       1.0  0.45887  0.80436  0.31838  1.0000
  C   C52       1.0  0.46802  0.77609  0.31382  1.0000
  H   H26       1.0  0.44873  0.80658  0.27878  1.0000
  H   H27       1.0  0.46414  0.75837  0.27208  1.0000
  N   N5        1.0  0.51511  0.77984  0.28379  1.0000
  O   O9        1.0  0.51878  0.77878  0.20184  1.0000
  O   O10       1.0  0.52730  0.78951  0.32714  1.0000
  C   C53       1.0  0.01018  0.80201  0.24513  1.0000
  C   C54       1.0  0.99927  0.77640  0.24226  1.0000
  C   C55       1.0  0.98970  0.70823  0.27569  1.0000
  C   C56       1.0  0.98117  0.67945  0.27552  1.0000
  H   H28       1.0  0.00123  0.70871  0.24919  1.0000
  H   H29       1.0  0.98681  0.66022  0.24754  1.0000
  H   H30       1.0  0.01493  0.81058  0.18628  1.0000
  H   H31       1.0  0.99642  0.76689  0.18092  1.0000
  C   C57       1.0  0.00944  0.18997  0.31125  1.0000
  C   C58       1.0  0.01996  0.21625  0.30771  1.0000
  C   C59       1.0  0.01987  0.29847  0.26715  1.0000
  C   C60       1.0  0.02888  0.32666  0.26333  1.0000
  H   H32       1.0  0.00914  0.29711  0.23207  1.0000
  H   H33       1.0  0.02429  0.34494  0.22588  1.0000
  H   H34       1.0  0.01375  0.16864  0.28903  1.0000
  H   H35       1.0  0.03150  0.21322  0.28266  1.0000
  C   C61       1.0  0.30420  0.05563  0.35577  1.0000
  C   C62       1.0  0.30598  0.12393  0.35066  1.0000
  C   C63       1.0  0.29313  0.10745  0.30620  1.0000
  C   C64       1.0  0.29228  0.07379  0.31033  1.0000
  H   H36       1.0  0.28331  0.06240  0.27504  1.0000
  C   C65       1.0  0.30828  0.15774  0.34566  1.0000
  C   C66       1.0  0.31395  0.22538  0.34310  1.0000
  C   C67       1.0  0.29833  0.21261  0.36216  1.0000
  C   C68       1.0  0.29560  0.17958  0.36414  1.0000
  H   H37       1.0  0.28881  0.22730  0.37757  1.0000
  H   H38       1.0  0.28427  0.17156  0.38180  1.0000
  N   N6        1.0  0.28182  0.12471  0.25359  1.0000
  O   O11       1.0  0.26745  0.12057  0.28058  1.0000
  O   O12       1.0  0.28261  0.11711  0.17206  1.0000
  C   C69       1.0  0.70364  0.95412  0.35477  1.0000
  C   C70       1.0  0.70190  0.88579  0.34873  1.0000
  C   C71       1.0  0.71481  0.90237  0.30511  1.0000
  C   C72       1.0  0.71563  0.93603  0.30970  1.0000
  H   H39       1.0  0.72463  0.94747  0.27479  1.0000
  C   C73       1.0  0.69965  0.85198  0.34324  1.0000
  C   C74       1.0  0.69410  0.78429  0.33939  1.0000
  C   C75       1.0  0.70966  0.79713  0.35955  1.0000
  C   C76       1.0  0.71234  0.83018  0.36213  1.0000
  H   H40       1.0  0.71917  0.78248  0.37541  1.0000
  H   H41       1.0  0.72362  0.83823  0.38063  1.0000
  N   N7        1.0  0.72621  0.88522  0.25277  1.0000
  O   O13       1.0  0.74054  0.88935  0.28043  1.0000
  O   O14       1.0  0.72553  0.89294  0.17130  1.0000
  C   C77       1.0  0.19128  0.57234  0.28085  1.0000
  C   C78       1.0  0.19051  0.60557  0.28267  1.0000
  C   C79       1.0  0.18416  0.67052  0.35717  1.0000
  C   C80       1.0  0.18139  0.70342  0.35802  1.0000
  H   H42       1.0  0.17459  0.65587  0.37200  1.0000
  H   H43       1.0  0.16988  0.71115  0.37320  1.0000
  H   H44       1.0  0.18243  0.56042  0.24601  1.0000
  H   H45       1.0  0.18118  0.61633  0.24859  1.0000
  C   C81       1.0  0.81696  0.43733  0.28195  1.0000
  C   C82       1.0  0.81771  0.40410  0.28434  1.0000
  C   C83       1.0  0.82387  0.33919  0.36027  1.0000
  C   C84       1.0  0.82658  0.30627  0.36194  1.0000
  H   H46       1.0  0.83344  0.35382  0.37538  1.0000
  H   H47       1.0  0.83805  0.29851  0.37795  1.0000
  H   H48       1.0  0.82588  0.44917  0.24748  1.0000
  H   H49       1.0  0.82709  0.39325  0.25092  1.0000
  C   C85       1.0  0.29509  0.33564  0.34089  1.0000
  C   C86       1.0  0.26887  0.38139  0.33863  1.0000
  C   C87       1.0  0.26639  0.35001  0.30630  1.0000
  C   C88       1.0  0.27936  0.32772  0.30877  1.0000
  H   H50       1.0  0.27724  0.30541  0.28467  1.0000
  C   C89       1.0  0.25597  0.40450  0.34242  1.0000
  C   C90       1.0  0.22945  0.44957  0.34636  1.0000
  C   C91       1.0  0.22780  0.41874  0.38297  1.0000
  C   C92       1.0  0.24077  0.39691  0.38196  1.0000
  H   H51       1.0  0.21702  0.41166  0.41133  1.0000
  H   H52       1.0  0.23894  0.37516  0.41047  1.0000
  N   N8        1.0  0.25114  0.34146  0.26850  1.0000
  O   O15       1.0  0.24476  0.31858  0.30953  1.0000
  O   O16       1.0  0.25250  0.33424  0.18691  1.0000
  C   C93       1.0  0.71311  0.67406  0.33941  1.0000
  C   C94       1.0  0.73935  0.62831  0.34027  1.0000
  C   C95       1.0  0.74194  0.65970  0.30820  1.0000
  C   C96       1.0  0.72896  0.68198  0.30916  1.0000
  H   H53       1.0  0.73116  0.70429  0.28522  1.0000
  C   C97       1.0  0.75222  0.60517  0.34538  1.0000
  C   C98       1.0  0.77869  0.55999  0.35166  1.0000
  C   C99       1.0  0.78024  0.59079  0.38863  1.0000
  C   C100      1.0  0.76730  0.61267  0.38649  1.0000
  H   H54       1.0  0.79095  0.59782  0.41783  1.0000
  H   H55       1.0  0.76906  0.63441  0.41517  1.0000
  N   N9        1.0  0.75733  0.66822  0.27205  1.0000
  O   O17       1.0  0.76356  0.69111  0.31372  1.0000
  O   O18       1.0  0.75626  0.67542  0.19032  1.0000
  C   C101      1.0  0.21052  0.86712  0.31247  1.0000
  C   C102      1.0  0.22333  0.88938  0.31333  1.0000
  C   C103      1.0  0.25010  0.93564  0.37479  1.0000
  C   C104      1.0  0.26305  0.95776  0.37260  1.0000
  H   H56       1.0  0.23932  0.94227  0.40394  1.0000
  H   H57       1.0  0.26124  0.97962  0.40048  1.0000
  H   H58       1.0  0.19945  0.87411  0.28762  1.0000
  H   H59       1.0  0.22106  0.91156  0.28858  1.0000
  C   C105      1.0  0.79740  0.14261  0.31468  1.0000
  C   C106      1.0  0.78460  0.12035  0.31411  1.0000
  C   C107      1.0  0.75764  0.07408  0.37289  1.0000
  C   C108      1.0  0.74472  0.05193  0.36964  1.0000
  H   H60       1.0  0.76832  0.06753  0.40325  1.0000
  H   H61       1.0  0.74645  0.03015  0.39816  1.0000
  H   H62       1.0  0.80856  0.13560  0.29114  1.0000
  H   H63       1.0  0.78696  0.09816  0.28971  1.0000
  C   C109      1.0  0.17129  0.46151  0.33982  1.0000
  C   C110      1.0  0.13921  0.43543  0.34398  1.0000
  C   C111      1.0  0.14826  0.43578  0.26235  1.0000
  C   C112      1.0  0.16428  0.44852  0.26153  1.0000
  H   H64       1.0  0.17063  0.44923  0.20228  1.0000
  C   C113      1.0  0.12267  0.42488  0.34792  1.0000
  C   C114      1.0  0.08904  0.40579  0.35006  1.0000
  C   C115      1.0  0.10146  0.38473  0.32173  1.0000
  C   C116      1.0  0.11798  0.39415  0.32030  1.0000
  H   H65       1.0  0.09857  0.36257  0.29909  1.0000
  H   H66       1.0  0.12658  0.37838  0.29841  1.0000
  N   N10       1.0  0.14088  0.42499  0.18188  1.0000
  O   O19       1.0  0.14881  0.40264  0.14735  1.0000
  O   O20       1.0  0.13961  0.44687  0.12507  1.0000
  C   C117      1.0  0.83687  0.54842  0.34166  1.0000
  C   C118      1.0  0.86884  0.57482  0.34621  1.0000
  C   C119      1.0  0.86162  0.56643  0.26265  1.0000
  C   C120      1.0  0.84572  0.55314  0.26148  1.0000
  H   H67       1.0  0.84067  0.54663  0.20131  1.0000
  C   C121      1.0  0.88529  0.58550  0.35205  1.0000
  C   C122      1.0  0.91894  0.60385  0.35507  1.0000
  C   C123      1.0  0.90699  0.62340  0.31460  1.0000
  C   C124      1.0  0.89044  0.61421  0.31226  1.0000
  H   H68       1.0  0.91031  0.64382  0.28249  1.0000
  H   H69       1.0  0.88219  0.62845  0.28016  1.0000
  N   N11       1.0  0.87061  0.57035  0.18210  1.0000
  O   O21       1.0  0.86346  0.58885  0.12894  1.0000
  O   O22       1.0  0.87291  0.54439  0.14289  1.0000
  C   C125      1.0  0.34610  0.96303  0.26349  1.0000
  C   C126      1.0  0.36185  0.94992  0.26140  1.0000
  C   C127      1.0  0.39773  0.94618  0.30782  1.0000
  C   C128      1.0  0.41417  0.93685  0.30702  1.0000
  H   H70       1.0  0.39494  0.96901  0.29051  1.0000
  H   H71       1.0  0.42262  0.95335  0.28789  1.0000
  H   H72       1.0  0.34158  0.97365  0.20685  1.0000
  H   H73       1.0  0.36836  0.95141  0.20280  1.0000
  C   C129      1.0  0.66324  0.05335  0.25738  1.0000
  C   C130      1.0  0.64742  0.06619  0.25523  1.0000
  C   C131      1.0  0.61069  0.06530  0.29157  1.0000
  C   C132      1.0  0.59419  0.07432  0.29075  1.0000
  H   H74       1.0  0.61380  0.04358  0.26624  1.0000
  H   H75       1.0  0.58596  0.05883  0.26354  1.0000
  H   H76       1.0  0.66879  0.04725  0.19819  1.0000
  H   H77       1.0  0.64189  0.06918  0.19411  1.0000
  C   C133      1.0  0.98999  0.56872  0.30558  1.0000
  C   C134      1.0  0.00127  0.54382  0.30832  1.0000
  C   C135      1.0  0.02537  0.49549  0.38044  1.0000
  C   C136      1.0  0.03707  0.47119  0.37605  1.0000
  H   H78       1.0  0.02874  0.51700  0.40608  1.0000
  H   H79       1.0  0.04859  0.47583  0.39898  1.0000
  H   H80       1.0  0.99323  0.58896  0.27226  1.0000
  H   H81       1.0  0.01227  0.54678  0.27666  1.0000
  C   C137      1.0  0.53346  0.06594  0.33794  1.0000
  C   C138      1.0  0.51045  0.01530  0.33173  1.0000
  C   C139      1.0  0.52596  0.01188  0.29012  1.0000
  C   C140      1.0  0.53729  0.03713  0.29449  1.0000
  H   H82       1.0  0.54834  0.03451  0.26330  1.0000
  C   C141      1.0  0.49875  0.99048  0.33299  1.0000
  C   C142      1.0  0.47508  0.94096  0.34105  1.0000
  C   C143      1.0  0.49129  0.93605  0.37110  1.0000
  C   C144      1.0  0.50289  0.96046  0.36789  1.0000
  H   H83       1.0  0.49482  0.91475  0.39741  1.0000
  H   H84       1.0  0.51434  0.95621  0.39256  1.0000
  N   N12       1.0  0.52972  0.98382  0.24223  1.0000
  O   O23       1.0  0.54210  0.97027  0.27399  1.0000
  O   O24       1.0  0.53218  0.98937  0.16037  1.0000
  C   C145      1.0  0.45532  0.36092  0.34547  1.0000
  N   N13       1.0  0.46163  0.39086  0.35043  1.0000
  C   C146      1.0  0.47805  0.39642  0.35597  1.0000
  N   N14       1.0  0.48811  0.37083  0.35655  1.0000
  C   C147      1.0  0.48239  0.34091  0.35159  1.0000
  N   N15       1.0  0.46607  0.33631  0.34631  1.0000
  C   C148      1.0  0.55310  0.64652  0.33501  1.0000
  N   N16       1.0  0.54688  0.61664  0.34197  1.0000
  C   C149      1.0  0.53049  0.61113  0.34880  1.0000
  N   N17       1.0  0.52038  0.63663  0.34857  1.0000
  C   C150      1.0  0.52585  0.66682  0.34146  1.0000
  N   N18       1.0  0.54225  0.67090  0.33487  1.0000
  C   C151      1.0  0.05269  0.86094  0.33627  1.0000
  N   N19       1.0  0.04637  0.89089  0.33223  1.0000
  C   C152      1.0  0.02994  0.89644  0.32753  1.0000
  N   N20       1.0  0.01988  0.87085  0.32700  1.0000
  C   C153      1.0  0.02562  0.84093  0.33091  1.0000
  N   N21       1.0  0.04195  0.83632  0.33517  1.0000
  C   C154      1.0  0.95491  0.14655  0.34781  1.0000
  N   N22       1.0  0.96113  0.11666  0.34101  1.0000
  C   C155      1.0  0.97752  0.11115  0.33421  1.0000
  N   N23       1.0  0.98764  0.13665  0.33430  1.0000
  C   C156      1.0  0.98216  0.16684  0.34127  1.0000
  N   N24       1.0  0.96576  0.17093  0.34784  1.0000
  C   C157      1.0  0.31708  0.25881  0.34424  1.0000
  N   N25       1.0  0.30498  0.28098  0.34192  1.0000
  C   C158      1.0  0.30801  0.31279  0.34302  1.0000
  N   N26       1.0  0.32394  0.32210  0.34656  1.0000
  C   C159      1.0  0.33655  0.30116  0.34945  1.0000
  N   N27       1.0  0.33267  0.26985  0.34819  1.0000
  C   C160      1.0  0.69102  0.75083  0.33998  1.0000
  N   N28       1.0  0.70316  0.72872  0.33910  1.0000
  C   C161      1.0  0.70017  0.69689  0.33993  1.0000
  N   N29       1.0  0.68424  0.68751  0.34169  1.0000
  C   C162      1.0  0.67159  0.70838  0.34303  1.0000
  N   N30       1.0  0.67543  0.73970  0.34216  1.0000
  C   C163      1.0  0.19091  0.75876  0.33812  1.0000
  N   N31       1.0  0.20301  0.78093  0.34064  1.0000
  C   C164      1.0  0.19998  0.81274  0.33962  1.0000
  N   N32       1.0  0.18406  0.82206  0.33593  1.0000
  C   C165      1.0  0.17145  0.80112  0.33283  1.0000
  N   N33       1.0  0.17532  0.76981  0.33404  1.0000
  C   C166      1.0  0.81702  0.25091  0.34245  1.0000
  N   N34       1.0  0.80487  0.22880  0.34358  1.0000
  C   C167      1.0  0.80786  0.19697  0.34300  1.0000
  N   N35       1.0  0.82378  0.18759  0.34123  1.0000
  C   C168      1.0  0.83644  0.20845  0.33966  1.0000
  N   N36       1.0  0.83260  0.23977  0.34029  1.0000
  C   C169      1.0  0.05035  0.36108  0.32319  1.0000
  N   N37       1.0  0.06658  0.36739  0.33294  1.0000
  C   C170      1.0  0.07215  0.39764  0.34472  1.0000
  N   N38       1.0  0.06085  0.42126  0.34746  1.0000
  C   C171      1.0  0.04461  0.41609  0.33898  1.0000
  N   N39       1.0  0.03981  0.38578  0.32697  1.0000
  C   C172      1.0  0.95822  0.64632  0.32575  1.0000
  N   N40       1.0  0.94190  0.64086  0.33578  1.0000
  C   C173      1.0  0.93591  0.61099  0.34906  1.0000
  N   N41       1.0  0.94680  0.58668  0.35224  1.0000
  C   C174      1.0  0.96309  0.59100  0.34271  1.0000
  N   N42       1.0  0.96834  0.62097  0.32978  1.0000
  C   C175      1.0  0.45769  0.86110  0.35945  1.0000
  N   N43       1.0  0.44144  0.86743  0.34988  1.0000
  C   C176      1.0  0.43588  0.89771  0.33850  1.0000
  N   N44       1.0  0.44720  0.92129  0.33597  1.0000
  C   C177      1.0  0.46344  0.91611  0.34429  1.0000
  N   N45       1.0  0.46823  0.88579  0.35596  1.0000
  C   C178      1.0  0.54982  0.14653  0.35703  1.0000
  N   N46       1.0  0.56613  0.14090  0.34684  1.0000
  C   C179      1.0  0.57203  0.11096  0.33390  1.0000
  N   N47       1.0  0.56106  0.08681  0.33111  1.0000
  C   C180      1.0  0.54478  0.09128  0.34066  1.0000
  N   N48       1.0  0.53961  0.12131  0.35342  1.0000
  C   C181      1.0  0.20332  0.52175  0.33077  1.0000
  N   N49       1.0  0.21686  0.50282  0.33638  1.0000
  C   C182      1.0  0.21572  0.47051  0.34222  1.0000
  N   N50       1.0  0.20048  0.45763  0.34226  1.0000
  C   C183      1.0  0.18684  0.47554  0.33730  1.0000
  N   N51       1.0  0.18846  0.50736  0.33201  1.0000
  C   C184      1.0  0.80488  0.48805  0.33119  1.0000
  N   N52       1.0  0.79135  0.50688  0.33921  1.0000
  C   C185      1.0  0.79246  0.53914  0.34737  1.0000
  N   N53       1.0  0.80768  0.55206  0.34790  1.0000
  C   C186      1.0  0.82133  0.53428  0.33988  1.0000
  N   N54       1.0  0.81973  0.50253  0.33160  1.0000
  C   C187      1.0  0.30463  0.02181  0.35127  1.0000
  N   N55       1.0  0.29109  0.00285  0.34638  1.0000
  C   C188      1.0  0.29224  0.97053  0.34112  1.0000
  N   N56       1.0  0.30748  0.95766  0.34107  1.0000
  C   C189      1.0  0.32112  0.97560  0.34521  1.0000
  N   N57       1.0  0.31949  0.00743  0.34981  1.0000
  C   C190      1.0  0.70318  0.98796  0.35015  1.0000
  N   N58       1.0  0.71672  0.00685  0.34358  1.0000
  C   C191      1.0  0.71560  0.03914  0.33654  1.0000
  N   N59       1.0  0.70037  0.05204  0.33599  1.0000
  C   C192      1.0  0.68673  0.03418  0.34231  1.0000
  N   N60       1.0  0.68833  0.00240  0.34917  1.0000
  C   C193      1.0  0.50807  0.57506  0.39192  1.0000
  C   C194      1.0  0.50077  0.54496  0.39182  1.0000
  C   C195      1.0  0.48423  0.48440  0.32631  1.0000
  C   C196      1.0  0.47661  0.45445  0.32893  1.0000
  H   H85       1.0  0.47774  0.50325  0.30198  1.0000
  H   H86       1.0  0.46488  0.45255  0.30609  1.0000
  H   H87       1.0  0.50190  0.59326  0.42206  1.0000
  H   H88       1.0  0.48966  0.54240  0.42252  1.0000
  C   C197      1.0  0.98443  0.08021  0.33040  1.0000
  C   C198      1.0  0.99946  0.01872  0.33210  1.0000
  C   C199      1.0  0.98391  0.02354  0.37264  1.0000
  C   C200      1.0  0.97657  0.05397  0.37030  1.0000
  H   H89       1.0  0.96556  0.05710  0.40164  1.0000
  C   C201      1.0  0.00735  0.98845  0.32977  1.0000
  C   C202      1.0  0.02283  0.92731  0.32501  1.0000
  C   C203      1.0  0.00652  0.93166  0.29556  1.0000
  C   C204      1.0  0.99900  0.96155  0.29714  1.0000
  H   H90       1.0  0.99982  0.91299  0.27184  1.0000
  H   H91       1.0  0.98730  0.96347  0.27369  1.0000
  N   N61       1.0  0.97622  0.99831  0.41891  1.0000
  O   O25       1.0  0.96240  0.99223  0.38657  1.0000
  O   O26       1.0  0.97462  0.00434  0.50114  1.0000
  C   C205      1.0  0.35320  0.31110  0.35282  1.0000
  C   C206      1.0  0.38711  0.32932  0.35326  1.0000
  C   C207      1.0  0.38210  0.29996  0.39129  1.0000
  C   C208      1.0  0.36539  0.29121  0.38956  1.0000
  H   H92       1.0  0.36213  0.26995  0.41724  1.0000
  C   C209      1.0  0.40399  0.33832  0.34758  1.0000
  C   C210      1.0  0.43819  0.35440  0.34224  1.0000
  C   C211      1.0  0.43238  0.32501  0.30933  1.0000
  C   C212      1.0  0.41568  0.31732  0.31098  1.0000
  H   H93       1.0  0.44028  0.30864  0.28339  1.0000
  H   H94       1.0  0.41214  0.29590  0.28547  1.0000
  N   N62       1.0  0.39372  0.28003  0.43342  1.0000
  O   O27       1.0  0.39421  0.25311  0.39749  1.0000
  O   O28       1.0  0.39073  0.27670  0.51571  1.0000
  C   C213      1.0  0.65494  0.69830  0.34466  1.0000
  C   C214      1.0  0.62110  0.67956  0.34253  1.0000
  C   C215      1.0  0.62584  0.70939  0.37861  1.0000
  C   C216      1.0  0.64252  0.71837  0.37819  1.0000
  H   H95       1.0  0.64558  0.73994  0.40462  1.0000
  C   C217      1.0  0.60428  0.67010  0.33634  1.0000
  C   C218      1.0  0.57019  0.65326  0.33107  1.0000
  C   C219      1.0  0.57588  0.68241  0.29583  1.0000
  C   C220      1.0  0.59254  0.69045  0.29741  1.0000
  H   H96       1.0  0.56790  0.69835  0.26841  1.0000
  H   H97       1.0  0.59599  0.71169  0.27037  1.0000
  N   N63       1.0  0.61398  0.72955  0.41770  1.0000
  O   O29       1.0  0.61351  0.75607  0.37942  1.0000
  O   O30       1.0  0.61664  0.73380  0.50001  1.0000
  C   C221      1.0  0.14972  0.84073  0.36342  1.0000
  C   C222      1.0  0.13313  0.84955  0.36356  1.0000
  C   C223      1.0  0.09835  0.86820  0.30403  1.0000
  C   C224      1.0  0.08160  0.87613  0.30691  1.0000
  H   H98       1.0  0.10636  0.88417  0.27703  1.0000
  H   H99       1.0  0.07803  0.89758  0.28180  1.0000
  H   H100      1.0  0.15802  0.85583  0.39168  1.0000
  H   H101      1.0  0.12999  0.87072  0.39221  1.0000
  C   C225      1.0  0.85792  0.16833  0.37051  1.0000
  C   C226      1.0  0.87447  0.15925  0.37210  1.0000
  C   C227      1.0  0.90928  0.14048  0.31413  1.0000
  C   C228      1.0  0.92597  0.13216  0.31710  1.0000
  H   H102      1.0  0.90123  0.12503  0.28510  1.0000
  H   H103      1.0  0.92946  0.11097  0.28991  1.0000
  H   H104      1.0  0.84944  0.15305  0.39634  1.0000
  H   H105      1.0  0.87740  0.13772  0.39928  1.0000
  C   C229      1.0  0.49875  0.30339  0.43720  1.0000
  C   C230      1.0  0.50965  0.27773  0.43989  1.0000
  C   C231      1.0  0.51872  0.20885  0.40970  1.0000
  C   C232      1.0  0.52725  0.18005  0.40995  1.0000
  H   H106      1.0  0.50735  0.20956  0.43812  1.0000
  H   H107      1.0  0.52177  0.16100  0.43991  1.0000
  H   H108      1.0  0.49462  0.31286  0.49631  1.0000
  H   H109      1.0  0.51312  0.26914  0.50134  1.0000
  C   C233      1.0  0.49856  0.68995  0.37119  1.0000
  C   C234      1.0  0.48804  0.71623  0.37471  1.0000
  C   C235      1.0  0.48813  0.79841  0.41558  1.0000
  C   C236      1.0  0.47912  0.82661  0.41937  1.0000
  H   H110      1.0  0.49886  0.79705  0.45063  1.0000
  H   H111      1.0  0.48372  0.84488  0.45685  1.0000
  H   H112      1.0  0.49424  0.66863  0.39345  1.0000
  H   H113      1.0  0.47650  0.71321  0.39970  1.0000
  C   C237      1.0  0.01470  0.81538  0.32817  1.0000
  C   C238      1.0  0.99254  0.76355  0.32197  1.0000
  C   C239      1.0  0.99694  0.77717  0.40599  1.0000
  C   C240      1.0  0.00789  0.80315  0.40795  1.0000
  H   H114      1.0  0.01117  0.81271  0.46859  1.0000
  C   C241      1.0  0.98294  0.73545  0.31621  1.0000
  C   C242      1.0  0.96554  0.67667  0.31568  1.0000
  C   C243      1.0  0.95845  0.70430  0.35259  1.0000
  C   C244      1.0  0.96709  0.73321  0.35344  1.0000
  H   H115      1.0  0.94735  0.70324  0.38386  1.0000
  H   H116      1.0  0.96184  0.75251  0.38325  1.0000
  N   N64       1.0  0.99094  0.76387  0.48690  1.0000
  O   O31       1.0  0.98285  0.78371  0.53128  1.0000
  O   O32       1.0  0.00232  0.75357  0.53545  1.0000
  C   C245      1.0  0.99310  0.19307  0.34093  1.0000
  C   C246      1.0  0.01453  0.24657  0.33417  1.0000
  C   C247      1.0  0.99835  0.25001  0.36727  1.0000
  C   C248      1.0  0.98790  0.22334  0.36980  1.0000
  H   H117      1.0  0.97629  0.22637  0.39364  1.0000
  C   C249      1.0  0.02496  0.27323  0.32262  1.0000
  C   C250      1.0  0.04339  0.33049  0.31392  1.0000
  C   C251      1.0  0.04913  0.30436  0.36422  1.0000
  C   C252      1.0  0.04001  0.27605  0.36855  1.0000
  H   H118      1.0  0.05932  0.30651  0.40354  1.0000
  H   H119      1.0  0.04389  0.25831  0.41021  1.0000
  N   N65       1.0  0.99292  0.27985  0.39894  1.0000
  O   O33       1.0  0.98927  0.27877  0.48092  1.0000
  O   O34       1.0  0.98072  0.28953  0.35573  1.0000
  C   C253      1.0  0.31668  0.07238  0.40103  1.0000
  C   C254      1.0  0.31746  0.10561  0.39924  1.0000
  C   C255      1.0  0.32380  0.17057  0.32485  1.0000
  C   C256      1.0  0.32658  0.20347  0.32411  1.0000
  H   H120      1.0  0.33337  0.15591  0.30989  1.0000
  H   H121      1.0  0.33809  0.21119  0.30886  1.0000
  H   H122      1.0  0.32554  0.06046  0.43580  1.0000
  H   H123      1.0  0.32680  0.11636  0.43328  1.0000
  C   C257      1.0  0.69108  0.93726  0.39916  1.0000
  C   C258      1.0  0.69033  0.90403  0.39692  1.0000
  C   C259      1.0  0.68420  0.83909  0.32132  1.0000
  C   C260      1.0  0.68147  0.80617  0.31992  1.0000
  H   H124      1.0  0.67464  0.85372  0.30601  1.0000
  H   H125      1.0  0.67001  0.79841  0.30388  1.0000
  H   H126      1.0  0.68215  0.94912  0.43349  1.0000
  H   H127      1.0  0.68094  0.89321  0.43029  1.0000
  C   C261      1.0  0.20376  0.55557  0.32617  1.0000
  C   C262      1.0  0.20198  0.62388  0.33138  1.0000
  C   C263      1.0  0.21482  0.60739  0.37591  1.0000
  C   C264      1.0  0.21565  0.57373  0.37178  1.0000
  H   H128      1.0  0.22462  0.56234  0.40711  1.0000
  C   C265      1.0  0.19968  0.65769  0.33641  1.0000
  C   C266      1.0  0.19404  0.72533  0.33919  1.0000
  C   C267      1.0  0.20966  0.71256  0.32024  1.0000
  C   C268      1.0  0.21238  0.67952  0.31815  1.0000
  H   H129      1.0  0.21918  0.72724  0.30487  1.0000
  H   H130      1.0  0.22371  0.67150  0.30048  1.0000
  N   N66       1.0  0.22612  0.62463  0.42864  1.0000
  O   O35       1.0  0.24050  0.62048  0.40178  1.0000
  O   O36       1.0  0.22530  0.61703  0.51016  1.0000
  C   C269      1.0  0.80443  0.45421  0.32644  1.0000
  C   C270      1.0  0.80617  0.38588  0.33275  1.0000
  C   C271      1.0  0.79327  0.40248  0.37645  1.0000
  C   C272      1.0  0.79246  0.43613  0.37178  1.0000
  H   H131      1.0  0.78346  0.44759  0.40669  1.0000
  C   C273      1.0  0.80841  0.35207  0.33840  1.0000
  C   C274      1.0  0.81394  0.28437  0.34277  1.0000
  C   C275      1.0  0.79838  0.29722  0.32257  1.0000
  C   C276      1.0  0.79571  0.33026  0.31981  1.0000
  H   H132      1.0  0.78886  0.28255  0.30702  1.0000
  H   H133      1.0  0.78443  0.33831  0.30136  1.0000
  N   N67       1.0  0.78189  0.38536  0.42898  1.0000
  O   O37       1.0  0.76755  0.38949  0.40148  1.0000
  O   O38       1.0  0.78260  0.39311  0.51042  1.0000
  C   C277      1.0  0.29748  0.36717  0.37029  1.0000
  C   C278      1.0  0.28467  0.38942  0.36971  1.0000
  C   C279      1.0  0.25786  0.43567  0.30860  1.0000
  C   C280      1.0  0.24491  0.45778  0.31085  1.0000
  H   H134      1.0  0.26862  0.44226  0.27915  1.0000
  H   H135      1.0  0.24670  0.47959  0.28265  1.0000
  H   H136      1.0  0.30856  0.37416  0.39504  1.0000
  H   H137      1.0  0.28694  0.41159  0.39443  1.0000
  C   C281      1.0  0.71062  0.64253  0.36857  1.0000
  C   C282      1.0  0.72343  0.62029  0.36950  1.0000
  C   C283      1.0  0.75041  0.57404  0.31116  1.0000
  C   C284      1.0  0.76334  0.55189  0.31449  1.0000
  H   H138      1.0  0.73976  0.56751  0.28047  1.0000
  H   H139      1.0  0.76163  0.53015  0.28568  1.0000
  H   H140      1.0  0.69945  0.63553  0.39200  1.0000
  H   H141      1.0  0.72106  0.59811  0.39395  1.0000
  C   C285      1.0  0.21290  0.83559  0.34194  1.0000
  C   C286      1.0  0.23911  0.88136  0.34466  1.0000
  C   C287      1.0  0.24158  0.84997  0.37699  1.0000
  C   C288      1.0  0.22861  0.82768  0.37432  1.0000
  H   H142      1.0  0.23072  0.80536  0.39844  1.0000
  C   C289      1.0  0.25201  0.90447  0.34104  1.0000
  C   C290      1.0  0.27852  0.94955  0.33722  1.0000
  C   C291      1.0  0.28019  0.91870  0.30075  1.0000
  C   C292      1.0  0.26722  0.89687  0.30169  1.0000
  H   H143      1.0  0.29097  0.91163  0.27244  1.0000
  H   H144      1.0  0.26907  0.87511  0.27322  1.0000
  N   N68       1.0  0.25681  0.84143  0.41502  1.0000
  O   O39       1.0  0.26321  0.81855  0.37407  1.0000
  O   O40       1.0  0.25541  0.83420  0.49658  1.0000
  C   C293      1.0  0.79493  0.17414  0.34381  1.0000
  C   C294      1.0  0.76870  0.12837  0.34361  1.0000
  C   C295      1.0  0.76612  0.15977  0.37560  1.0000
  C   C296      1.0  0.77909  0.18206  0.37434  1.0000
  H   H145      1.0  0.77690  0.20438  0.39820  1.0000
  C   C297      1.0  0.75582  0.10522  0.33876  1.0000
  C   C298      1.0  0.72935  0.06005  0.33275  1.0000
  C   C299      1.0  0.72778  0.09086  0.29589  1.0000
  C   C300      1.0  0.74073  0.11274  0.29790  1.0000
  H   H146      1.0  0.71706  0.09789  0.26672  1.0000
  H   H147      1.0  0.73895  0.13447  0.26922  1.0000
  N   N69       1.0  0.75075  0.16831  0.41198  1.0000
  O   O41       1.0  0.74449  0.19118  0.37033  1.0000
  O   O42       1.0  0.75186  0.17555  0.49367  1.0000
  C   C301      1.0  0.16226  0.46125  0.42032  1.0000
  C   C302      1.0  0.14648  0.44823  0.42235  1.0000
  C   C303      1.0  0.11036  0.44565  0.37851  1.0000
  C   C304      1.0  0.09392  0.43631  0.37934  1.0000
  H   H148      1.0  0.11321  0.46823  0.39802  1.0000
  H   H149      1.0  0.08550  0.45252  0.40079  1.0000
  H   H150      1.0  0.16705  0.47067  0.47799  1.0000
  H   H151      1.0  0.14023  0.44852  0.48193  1.0000
  C   C305      1.0  0.84401  0.55726  0.42408  1.0000
  C   C306      1.0  0.85987  0.56995  0.42630  1.0000
  C   C307      1.0  0.89707  0.56649  0.39534  1.0000
  C   C308      1.0  0.91359  0.57541  0.39621  1.0000
  H   H152      1.0  0.89382  0.54532  0.42369  1.0000
  H   H153      1.0  0.92173  0.56046  0.42651  1.0000
  H   H154      1.0  0.83792  0.55371  0.48330  1.0000
  H   H155      1.0  0.86487  0.57549  0.48737  1.0000
  C   C309      1.0  0.33668  0.96158  0.34252  1.0000
  C   C310      1.0  0.36877  0.93551  0.33847  1.0000
  C   C311      1.0  0.35935  0.93421  0.41873  1.0000
  C   C312      1.0  0.34332  0.94688  0.41937  1.0000
  H   H156      1.0  0.33670  0.94637  0.47773  1.0000
  C   C313      1.0  0.38534  0.92501  0.33501  1.0000
  C   C314      1.0  0.41900  0.90595  0.33324  1.0000
  C   C315      1.0  0.40650  0.88453  0.35834  1.0000
  C   C316      1.0  0.38998  0.89392  0.35951  1.0000
  H   H157      1.0  0.40934  0.86206  0.37862  1.0000
  H   H158      1.0  0.38133  0.87783  0.37878  1.0000
  N   N70       1.0  0.36638  0.92195  0.49844  1.0000
  O   O43       1.0  0.35832  0.89898  0.52856  1.0000
  O   O44       1.0  0.36739  0.94275  0.55856  1.0000
  C   C317      1.0  0.67119  0.04827  0.34008  1.0000
  C   C318      1.0  0.63917  0.07450  0.33544  1.0000
  C   C319      1.0  0.64716  0.06961  0.41914  1.0000
  C   C320      1.0  0.66312  0.05658  0.42038  1.0000
  H   H159      1.0  0.66872  0.05259  0.48086  1.0000
  C   C321      1.0  0.62266  0.08508  0.33031  1.0000
  C   C322      1.0  0.58899  0.10355  0.32786  1.0000
  C   C323      1.0  0.60111  0.12377  0.36396  1.0000
  C   C324      1.0  0.61766  0.11458  0.36577  1.0000
  H   H160      1.0  0.59793  0.14489  0.39269  1.0000
  H   H161      1.0  0.62604  0.12950  0.39417  1.0000
  N   N71       1.0  0.63885  0.07646  0.50030  1.0000
  O   O45       1.0  0.64636  0.09682  0.54591  1.0000
  O   O46       1.0  0.63695  0.05207  0.54748  1.0000
  C   C325      1.0  0.97441  0.56564  0.34547  1.0000
  C   C326      1.0  0.99746  0.51507  0.35206  1.0000
  C   C327      1.0  0.98194  0.51162  0.39351  1.0000
  C   C328      1.0  0.97058  0.53684  0.38899  1.0000
  H   H162      1.0  0.95952  0.53420  0.42005  1.0000
  C   C329      1.0  0.00919  0.49029  0.35087  1.0000
  C   C330      1.0  0.03293  0.44090  0.34240  1.0000
  C   C331      1.0  0.01673  0.43593  0.31242  1.0000
  C   C332      1.0  0.00509  0.46028  0.31584  1.0000
  H   H163      1.0  0.01321  0.41462  0.28606  1.0000
  H   H164      1.0  0.99364  0.45597  0.29122  1.0000
  N   N72       1.0  0.97818  0.48356  0.44138  1.0000
  O   O47       1.0  0.96583  0.46997  0.40951  1.0000
  O   O48       1.0  0.97570  0.48911  0.52321  1.0000
  C   C333      1.0  0.51789  0.06902  0.37786  1.0000
  C   C334      1.0  0.50662  0.04407  0.37533  1.0000
  C   C335      1.0  0.48257  0.99561  0.30331  1.0000
  C   C336      1.0  0.47091  0.97125  0.30752  1.0000
  H   H165      1.0  0.47918  0.01712  0.27770  1.0000
  H   H166      1.0  0.45938  0.97585  0.28451  1.0000
  H   H167      1.0  0.51465  0.08927  0.41114  1.0000
  H   H168      1.0  0.49563  0.04701  0.40705  1.0000
