data_image0
_chemical_formula_structural       C2OHC2OHC6H4C6H4COHCOHC7H4C7H4COHCOH2C2OHC2OH2C11H5C11H5COCOCOHOH2COHC2O2H2COC2O2H2C2O2H2C2O2H2C2OHC4OHOHC2OHC4OHOHC2OC2OHC4OHOHC4OHOHC4OHOHC4OHOHC4OHOHC4OHOH3C24H17C24H15C24H15C24H15C24H15C24H15C24H15C24H15C24H15C24H15C3HOHC4OHOHC3HOHC4OHOHC4OHOHC4OHOHCOHC2O2H2COHC2O2H2C2OH2COHC2O2C2O2H2C2O2H2C2O2H2C2O2H2C2O2H2
_chemical_formula_sum              "C396 O72 H252"
_cell_length_a       75.7958
_cell_length_b       75.7958
_cell_length_c       14.9254
_cell_angle_alpha    90
_cell_angle_beta     90
_cell_angle_gamma    120

_space_group_name_H-M_alt    "P 1"
_space_group_IT_number       1

loop_
  _space_group_symop_operation_xyz
  'x, y, z'

loop_
  _atom_site_type_symbol
  _atom_site_label
  _atom_site_symmetry_multiplicity
  _atom_site_fract_x
  _atom_site_fract_y
  _atom_site_fract_z
  _atom_site_occupancy
  C   C1        1.0  0.02129  0.80725  0.33475  1.0000
  C   C2        1.0  0.01028  0.80395  0.25372  1.0000
  O   O1        1.0  0.02033  0.81258  0.17586  1.0000
  H   H1        1.0  0.01997  0.80153  0.13988  1.0000
  C   C3        1.0  0.01003  0.19411  0.25749  1.0000
  C   C4        1.0  0.02123  0.20205  0.33791  1.0000
  O   O2        1.0  0.01992  0.19538  0.17929  1.0000
  H   H2        1.0  0.01954  0.20606  0.14325  1.0000
  C   C5        1.0  0.08686  0.23453  0.33729  1.0000
  C   C6        1.0  0.07557  0.21692  0.39081  1.0000
  C   C7        1.0  0.05410  0.20626  0.39100  1.0000
  C   C8        1.0  0.04303  0.21279  0.33754  1.0000
  C   C9        1.0  0.05421  0.23037  0.28413  1.0000
  C   C10       1.0  0.07567  0.24100  0.28401  1.0000
  H   H3        1.0  0.08291  0.21181  0.43172  1.0000
  H   H4        1.0  0.04658  0.19356  0.43036  1.0000
  H   H5        1.0  0.08307  0.25345  0.24319  1.0000
  H   H6        1.0  0.04678  0.23573  0.24526  1.0000
  C   C11       1.0  0.08694  0.84050  0.33782  1.0000
  C   C12       1.0  0.07592  0.82300  0.28343  1.0000
  C   C13       1.0  0.05446  0.81214  0.28235  1.0000
  C   C14       1.0  0.04310  0.81837  0.33548  1.0000
  C   C15       1.0  0.05400  0.83584  0.38989  1.0000
  C   C16       1.0  0.07547  0.84666  0.39099  1.0000
  H   H7        1.0  0.04716  0.79944  0.24282  1.0000
  H   H8        1.0  0.08344  0.81807  0.24271  1.0000
  H   H9        1.0  0.04635  0.84090  0.42909  1.0000
  H   H10       1.0  0.08266  0.85898  0.43270  1.0000
  C   C17       1.0  0.01012  0.79912  0.41512  1.0000
  O   O3        1.0  0.01985  0.80149  0.49483  1.0000
  H   H11       1.0  0.02304  0.79042  0.49823  1.0000
  C   C18       1.0  0.01025  0.19917  0.41872  1.0000
  O   O4        1.0  0.02018  0.20671  0.49787  1.0000
  H   H12       1.0  0.02332  0.22096  0.50090  1.0000
  C   C19       1.0  0.14147  0.24529  0.33846  1.0000
  C   C20       1.0  0.14156  0.27812  0.34064  1.0000
  C   C21       1.0  0.11999  0.26702  0.33951  1.0000
  C   C22       1.0  0.10876  0.24545  0.33780  1.0000
  C   C23       1.0  0.11988  0.23499  0.33660  1.0000
  C   C24       1.0  0.14641  0.31134  0.39493  1.0000
  C   C25       1.0  0.14524  0.21583  0.38641  1.0000
  H   H13       1.0  0.13225  0.21016  0.42408  1.0000
  H   H14       1.0  0.13406  0.30403  0.43639  1.0000
  H   H15       1.0  0.11202  0.21944  0.33138  1.0000
  H   H16       1.0  0.11224  0.27487  0.33983  1.0000
  C   C26       1.0  0.10884  0.85148  0.33961  1.0000
  C   C27       1.0  0.12006  0.84112  0.34048  1.0000
  C   C28       1.0  0.14164  0.85155  0.34225  1.0000
  C   C29       1.0  0.14155  0.88427  0.34234  1.0000
  C   C30       1.0  0.11998  0.87307  0.34029  1.0000
  C   C31       1.0  0.14619  0.82283  0.39408  1.0000
  C   C32       1.0  0.14598  0.91738  0.39566  1.0000
  H   H17       1.0  0.13345  0.90998  0.43605  1.0000
  H   H18       1.0  0.13367  0.81756  0.43457  1.0000
  H   H19       1.0  0.11230  0.82553  0.33965  1.0000
  H   H20       1.0  0.11218  0.88084  0.33600  1.0000
  C   C33       1.0  0.18873  0.37658  0.25786  1.0000
  O   O5        1.0  0.18106  0.36661  0.17892  1.0000
  H   H21       1.0  0.16692  0.36381  0.17553  1.0000
  C   C34       1.0  0.18915  0.80059  0.25764  1.0000
  O   O6        1.0  0.18118  0.80278  0.17926  1.0000
  H   H22       1.0  0.19268  0.81314  0.14404  1.0000
  H   H23       1.0  0.19029  0.76786  0.17315  1.0000
  C   C35       1.0  0.18513  0.20125  0.33710  1.0000
  C   C36       1.0  0.19033  0.19542  0.25530  1.0000
  O   O7        1.0  0.18488  0.19983  0.17494  1.0000
  H   H24       1.0  0.17091  0.18876  0.16298  1.0000
  C   C37       1.0  0.18871  0.98297  0.26279  1.0000
  C   C38       1.0  0.18531  0.97180  0.34338  1.0000
  O   O8        1.0  0.18058  0.97305  0.18412  1.0000
  H   H25       1.0  0.19198  0.97416  0.14821  1.0000
  H   H26       1.0  0.19015  0.01731  0.18140  1.0000
  C   C39       1.0  0.15189  0.26687  0.34085  1.0000
  C   C40       1.0  0.15262  0.30001  0.34106  1.0000
  C   C41       1.0  0.17010  0.31116  0.28665  1.0000
  C   C42       1.0  0.18087  0.33262  0.28612  1.0000
  C   C43       1.0  0.17459  0.34384  0.33995  1.0000
  C   C44       1.0  0.15717  0.33281  0.39445  1.0000
  C   C45       1.0  0.15238  0.23426  0.33799  1.0000
  C   C46       1.0  0.17075  0.24134  0.28914  1.0000
  C   C47       1.0  0.18150  0.23062  0.28913  1.0000
  C   C48       1.0  0.17426  0.21222  0.33743  1.0000
  C   C49       1.0  0.15586  0.20500  0.38576  1.0000
  H   H27       1.0  0.17644  0.25435  0.25157  1.0000
  H   H28       1.0  0.14991  0.19161  0.42071  1.0000
  H   H29       1.0  0.15204  0.34035  0.43390  1.0000
  H   H30       1.0  0.17502  0.30373  0.24533  1.0000
  H   H31       1.0  0.16745  0.27464  0.34561  1.0000
  C   C50       1.0  0.15199  0.87313  0.34361  1.0000
  C   C51       1.0  0.15266  0.84068  0.34210  1.0000
  C   C52       1.0  0.15693  0.81210  0.39315  1.0000
  C   C53       1.0  0.17462  0.81879  0.34014  1.0000
  C   C54       1.0  0.18120  0.83663  0.28839  1.0000
  C   C55       1.0  0.17042  0.84731  0.28922  1.0000
  C   C56       1.0  0.15249  0.90617  0.34267  1.0000
  C   C57       1.0  0.15672  0.93885  0.39599  1.0000
  C   C58       1.0  0.17440  0.95000  0.34311  1.0000
  C   C59       1.0  0.18098  0.93890  0.29020  1.0000
  C   C60       1.0  0.17024  0.91744  0.28996  1.0000
  H   H32       1.0  0.15140  0.94631  0.43492  1.0000
  H   H33       1.0  0.17541  0.91010  0.24947  1.0000
  H   H34       1.0  0.17557  0.85992  0.24932  1.0000
  H   H35       1.0  0.15160  0.79919  0.43124  1.0000
  H   H36       1.0  0.16755  0.88094  0.34837  1.0000
  C   C61       1.0  0.18552  0.36566  0.33909  1.0000
  O   O9        1.0  0.19103  0.36731  0.49939  1.0000
  C   C62       1.0  0.18555  0.80791  0.33912  1.0000
  O   O10       1.0  0.19057  0.81132  0.49978  1.0000
  C   C63       1.0  0.19089  0.19579  0.41837  1.0000
  O   O11       1.0  0.18723  0.20198  0.49860  1.0000
  H   H37       1.0  0.17617  0.18981  0.52767  1.0000
  O   O12       1.0  0.19093  0.97288  0.50336  1.0000
  H   H38       1.0  0.19247  0.56823  0.45461  1.0000
  H   H39       1.0  0.19246  0.61215  0.45458  1.0000
  C   C64       1.0  0.19984  0.39814  0.25662  1.0000
  O   O13       1.0  0.20172  0.40798  0.17762  1.0000
  H   H40       1.0  0.21209  0.40688  0.14233  1.0000
  C   C65       1.0  0.61569  0.80210  0.25177  1.0000
  C   C66       1.0  0.59411  0.79090  0.25174  1.0000
  O   O14       1.0  0.62569  0.80654  0.17167  1.0000
  O   O15       1.0  0.58412  0.78677  0.17171  1.0000
  H   H41       1.0  0.62432  0.81764  0.14459  1.0000
  H   H42       1.0  0.58543  0.77573  0.14363  1.0000
  C   C67       1.0  0.19947  0.78936  0.25721  1.0000
  O   O16       1.0  0.20172  0.78194  0.17744  1.0000
  C   C68       1.0  0.80616  0.61040  0.25688  1.0000
  C   C69       1.0  0.79497  0.58884  0.25698  1.0000
  O   O17       1.0  0.80817  0.62044  0.17834  1.0000
  O   O18       1.0  0.78742  0.57906  0.17754  1.0000
  H   H43       1.0  0.81845  0.61925  0.14268  1.0000
  H   H44       1.0  0.77333  0.57640  0.17366  1.0000
  C   C70       1.0  0.38257  0.18666  0.25261  1.0000
  C   C71       1.0  0.40412  0.19746  0.25212  1.0000
  O   O19       1.0  0.37267  0.18366  0.17291  1.0000
  O   O20       1.0  0.41382  0.20428  0.17197  1.0000
  H   H45       1.0  0.36960  0.19477  0.16706  1.0000
  H   H46       1.0  0.41684  0.21846  0.16603  1.0000
  C   C72       1.0  0.80624  0.18386  0.25334  1.0000
  C   C73       1.0  0.79548  0.19465  0.25327  1.0000
  O   O21       1.0  0.80919  0.17700  0.17344  1.0000
  O   O22       1.0  0.78863  0.19758  0.17331  1.0000
  H   H47       1.0  0.79806  0.16282  0.16753  1.0000
  H   H48       1.0  0.77445  0.18644  0.16734  1.0000
  C   C74       1.0  0.20155  0.18510  0.25469  1.0000
  C   C75       1.0  0.20730  0.17960  0.33591  1.0000
  O   O23       1.0  0.20667  0.18060  0.17375  1.0000
  H   H49       1.0  0.22055  0.19170  0.16056  1.0000
  C   C76       1.0  0.79125  0.97169  0.34009  1.0000
  C   C77       1.0  0.79717  0.98279  0.25855  1.0000
  C   C78       1.0  0.80798  0.00436  0.25857  1.0000
  C   C79       1.0  0.81309  0.01552  0.34002  1.0000
  O   O24       1.0  0.81328  0.01407  0.17784  1.0000
  H   H50       1.0  0.80271  0.01753  0.16318  1.0000
  O   O25       1.0  0.79372  0.97281  0.17872  1.0000
  H   H51       1.0  0.78271  0.97384  0.14870  1.0000
  C   C80       1.0  0.98870  0.79312  0.25333  1.0000
  C   C81       1.0  0.97756  0.78531  0.33395  1.0000
  O   O26       1.0  0.97877  0.79168  0.17508  1.0000
  H   H52       1.0  0.97911  0.78092  0.13957  1.0000
  C   C82       1.0  0.81315  0.78539  0.33080  1.0000
  C   C83       1.0  0.80771  0.79102  0.24917  1.0000
  C   C84       1.0  0.79688  0.80177  0.24908  1.0000
  C   C85       1.0  0.79100  0.80706  0.33050  1.0000
  O   O27       1.0  0.79225  0.80683  0.16831  1.0000
  H   H53       1.0  0.77820  0.79620  0.15446  1.0000
  O   O28       1.0  0.81406  0.78739  0.16930  1.0000
  H   H54       1.0  0.80197  0.77624  0.14015  1.0000
  C   C86       1.0  0.20713  0.01554  0.34449  1.0000
  C   C87       1.0  0.19919  0.00452  0.26361  1.0000
  O   O29       1.0  0.20143  0.01443  0.18450  1.0000
  C   C88       1.0  0.97749  0.18020  0.33912  1.0000
  C   C89       1.0  0.98846  0.18332  0.25809  1.0000
  O   O30       1.0  0.97836  0.17459  0.18044  1.0000
  H   H55       1.0  0.97877  0.18560  0.14397  1.0000
  C   C90       1.0  0.22379  0.62470  0.33171  1.0000
  C   C91       1.0  0.23231  0.61944  0.25897  1.0000
  C   C92       1.0  0.23231  0.60078  0.25903  1.0000
  C   C93       1.0  0.22380  0.58701  0.33178  1.0000
  O   O31       1.0  0.24303  0.59761  0.19384  1.0000
  H   H56       1.0  0.23400  0.59248  0.14134  1.0000
  O   O32       1.0  0.24301  0.63333  0.19375  1.0000
  H   H57       1.0  0.23397  0.62941  0.14128  1.0000
  C   C94       1.0  0.36789  0.58672  0.34384  1.0000
  C   C95       1.0  0.37349  0.60021  0.26983  1.0000
  C   C96       1.0  0.39214  0.61888  0.26994  1.0000
  C   C97       1.0  0.40560  0.62446  0.34406  1.0000
  O   O33       1.0  0.39562  0.63249  0.20298  1.0000
  H   H58       1.0  0.40090  0.62830  0.15192  1.0000
  O   O34       1.0  0.35991  0.59676  0.20277  1.0000
  H   H59       1.0  0.36409  0.59147  0.15177  1.0000
  C   C98       1.0  0.40527  0.76877  0.33531  1.0000
  C   C99       1.0  0.39156  0.76061  0.26217  1.0000
  C   C100      1.0  0.37295  0.76071  0.26268  1.0000
  C   C101      1.0  0.36766  0.76897  0.33630  1.0000
  O   O35       1.0  0.35911  0.75032  0.19683  1.0000
  H   H60       1.0  0.36313  0.75958  0.14507  1.0000
  O   O36       1.0  0.39473  0.75012  0.19591  1.0000
  H   H61       1.0  0.39989  0.75933  0.14402  1.0000
  C   C102      1.0  0.77486  0.36262  0.34295  1.0000
  C   C103      1.0  0.76693  0.36819  0.26900  1.0000
  C   C104      1.0  0.76691  0.38684  0.26908  1.0000
  C   C105      1.0  0.77483  0.40032  0.34311  1.0000
  O   O37       1.0  0.75676  0.39031  0.20219  1.0000
  H   H62       1.0  0.76620  0.39558  0.15107  1.0000
  O   O38       1.0  0.75679  0.35458  0.20205  1.0000
  H   H63       1.0  0.76622  0.35879  0.15089  1.0000
  C   C106      1.0  0.63055  0.40012  0.33139  1.0000
  C   C107      1.0  0.62535  0.38642  0.25841  1.0000
  C   C108      1.0  0.60669  0.36774  0.25804  1.0000
  C   C109      1.0  0.59287  0.36241  0.33063  1.0000
  O   O39       1.0  0.60358  0.35392  0.19262  1.0000
  H   H64       1.0  0.59845  0.35785  0.14018  1.0000
  O   O40       1.0  0.63928  0.38966  0.19333  1.0000
  H   H65       1.0  0.63540  0.39482  0.14088  1.0000
  C   C110      1.0  0.59273  0.21814  0.33659  1.0000
  C   C111      1.0  0.60633  0.22637  0.26311  1.0000
  C   C112      1.0  0.62504  0.22646  0.26300  1.0000
  C   C113      1.0  0.63052  0.21830  0.33638  1.0000
  O   O41       1.0  0.63874  0.23690  0.19681  1.0000
  H   H66       1.0  0.63469  0.22766  0.14499  1.0000
  O   O42       1.0  0.60294  0.23675  0.19701  1.0000
  H   H67       1.0  0.59774  0.22748  0.14528  1.0000
  H   H68       1.0  0.19482  0.23649  0.25365  1.0000
  H   H69       1.0  0.19349  0.34003  0.24616  1.0000
  C   C114      1.0  0.74736  0.88396  0.33808  1.0000
  C   C115      1.0  0.72577  0.87273  0.33901  1.0000
  C   C116      1.0  0.71453  0.85118  0.33391  1.0000
  C   C117      1.0  0.72575  0.84085  0.32909  1.0000
  C   C118      1.0  0.74733  0.85116  0.33098  1.0000
  C   C119      1.0  0.75771  0.87273  0.33482  1.0000
  C   C120      1.0  0.69258  0.84021  0.33371  1.0000
  C   C121      1.0  0.68129  0.84774  0.28801  1.0000
  C   C122      1.0  0.65983  0.83706  0.28824  1.0000
  C   C123      1.0  0.64865  0.81822  0.33334  1.0000
  C   C124      1.0  0.65981  0.81056  0.37863  1.0000
  C   C125      1.0  0.68127  0.82137  0.37924  1.0000
  C   C126      1.0  0.75828  0.90591  0.33973  1.0000
  C   C127      1.0  0.75123  0.91726  0.29119  1.0000
  C   C128      1.0  0.76191  0.93872  0.29181  1.0000
  C   C129      1.0  0.78032  0.94984  0.34009  1.0000
  C   C130      1.0  0.78750  0.93861  0.38833  1.0000
  C   C131      1.0  0.77667  0.91715  0.38849  1.0000
  C   C132      1.0  0.75821  0.84008  0.32975  1.0000
  C   C133      1.0  0.77682  0.84734  0.28261  1.0000
  C   C134      1.0  0.78758  0.83663  0.28316  1.0000
  C   C135      1.0  0.78011  0.81803  0.33013  1.0000
  C   C136      1.0  0.76146  0.81060  0.37658  1.0000
  C   C137      1.0  0.75086  0.82146  0.37696  1.0000
  H   H70       1.0  0.75603  0.94620  0.25669  1.0000
  H   H71       1.0  0.73828  0.91000  0.25326  1.0000
  H   H72       1.0  0.80087  0.94603  0.42347  1.0000
  H   H73       1.0  0.78234  0.90980  0.42592  1.0000
  H   H74       1.0  0.78270  0.86049  0.24600  1.0000
  H   H75       1.0  0.80109  0.84267  0.24912  1.0000
  H   H76       1.0  0.73773  0.81565  0.41370  1.0000
  H   H77       1.0  0.75532  0.79707  0.41051  1.0000
  H   H78       1.0  0.68856  0.81536  0.41478  1.0000
  H   H79       1.0  0.65236  0.79688  0.41142  1.0000
  H   H80       1.0  0.65239  0.84330  0.25538  1.0000
  H   H81       1.0  0.68861  0.86107  0.25266  1.0000
  H   H82       1.0  0.71801  0.88048  0.34613  1.0000
  H   H83       1.0  0.77329  0.88051  0.33524  1.0000
  H   H84       1.0  0.71797  0.82536  0.32151  1.0000
  H   H85       1.0  0.19383  0.94640  0.25171  1.0000
  H   H86       1.0  0.19405  0.84212  0.24985  1.0000
  C   C138      1.0  0.85726  0.74176  0.33402  1.0000
  C   C139      1.0  0.84692  0.72017  0.33691  1.0000
  C   C140      1.0  0.85734  0.70901  0.33821  1.0000
  C   C141      1.0  0.87892  0.72022  0.33789  1.0000
  C   C142      1.0  0.89005  0.74178  0.33496  1.0000
  C   C143      1.0  0.87885  0.75214  0.33255  1.0000
  C   C144      1.0  0.84646  0.68710  0.33906  1.0000
  C   C145      1.0  0.82876  0.67582  0.39204  1.0000
  C   C146      1.0  0.81801  0.65435  0.39177  1.0000
  C   C147      1.0  0.82453  0.64325  0.33845  1.0000
  C   C148      1.0  0.84223  0.65442  0.28575  1.0000
  C   C149      1.0  0.85292  0.67587  0.28588  1.0000
  C   C150      1.0  0.84628  0.75274  0.33253  1.0000
  C   C151      1.0  0.82784  0.74548  0.28402  1.0000
  C   C152      1.0  0.81699  0.75609  0.28372  1.0000
  C   C153      1.0  0.82422  0.77461  0.33102  1.0000
  C   C154      1.0  0.84270  0.78204  0.37893  1.0000
  C   C155      1.0  0.85340  0.77128  0.38010  1.0000
  C   C156      1.0  0.91195  0.75274  0.33438  1.0000
  C   C157      1.0  0.92325  0.77053  0.38680  1.0000
  C   C158      1.0  0.94471  0.78122  0.38665  1.0000
  C   C159      1.0  0.95576  0.77456  0.33385  1.0000
  C   C160      1.0  0.94457  0.75681  0.28145  1.0000
  C   C161      1.0  0.92312  0.74613  0.28171  1.0000
  H   H87       1.0  0.80358  0.75002  0.24892  1.0000
  H   H88       1.0  0.82215  0.73238  0.24711  1.0000
  H   H89       1.0  0.84861  0.79548  0.41341  1.0000
  H   H90       1.0  0.86640  0.77708  0.41771  1.0000
  H   H91       1.0  0.91592  0.77575  0.42715  1.0000
  H   H92       1.0  0.95226  0.79404  0.42528  1.0000
  H   H93       1.0  0.91569  0.73354  0.24171  1.0000
  H   H94       1.0  0.95200  0.75136  0.24308  1.0000
  H   H95       1.0  0.86540  0.68325  0.24521  1.0000
  H   H96       1.0  0.84760  0.64698  0.24693  1.0000
  H   H97       1.0  0.80521  0.64684  0.43054  1.0000
  H   H98       1.0  0.82362  0.68315  0.43275  1.0000
  H   H99       1.0  0.83134  0.71232  0.33782  1.0000
  H   H100      1.0  0.88666  0.76768  0.32660  1.0000
  H   H101      1.0  0.88674  0.71249  0.34260  1.0000
  C   C162      1.0  0.25127  0.10309  0.34108  1.0000
  C   C163      1.0  0.27285  0.11424  0.33998  1.0000
  C   C164      1.0  0.28404  0.13580  0.33669  1.0000
  C   C165      1.0  0.27288  0.14621  0.33448  1.0000
  C   C166      1.0  0.25130  0.13588  0.33653  1.0000
  C   C167      1.0  0.24090  0.11430  0.33981  1.0000
  C   C168      1.0  0.30593  0.14672  0.33581  1.0000
  C   C169      1.0  0.31706  0.14001  0.28352  1.0000
  C   C170      1.0  0.33852  0.15069  0.28286  1.0000
  C   C171      1.0  0.34976  0.16855  0.33454  1.0000
  C   C172      1.0  0.33874  0.17533  0.38685  1.0000
  C   C173      1.0  0.31728  0.16463  0.38746  1.0000
  C   C174      1.0  0.24032  0.08119  0.34292  1.0000
  C   C175      1.0  0.24652  0.06977  0.28956  1.0000
  C   C176      1.0  0.23571  0.04831  0.29036  1.0000
  C   C177      1.0  0.21821  0.03735  0.34447  1.0000
  C   C178      1.0  0.21194  0.04865  0.39782  1.0000
  C   C179      1.0  0.22279  0.07011  0.39710  1.0000
  C   C180      1.0  0.24038  0.14691  0.33551  1.0000
  C   C181      1.0  0.22201  0.13979  0.28669  1.0000
  C   C182      1.0  0.21119  0.15044  0.28695  1.0000
  C   C183      1.0  0.21837  0.16882  0.33533  1.0000
  C   C184      1.0  0.23679  0.17610  0.38359  1.0000
  C   C185      1.0  0.24747  0.16532  0.38404  1.0000
  H   H102      1.0  0.24081  0.04071  0.25101  1.0000
  H   H103      1.0  0.25885  0.07700  0.24795  1.0000
  H   H104      1.0  0.19922  0.04130  0.43718  1.0000
  H   H105      1.0  0.21783  0.07760  0.43784  1.0000
  H   H106      1.0  0.21634  0.12678  0.24919  1.0000
  H   H107      1.0  0.19783  0.14449  0.25178  1.0000
  H   H108      1.0  0.26045  0.17100  0.42183  1.0000
  H   H109      1.0  0.24265  0.18943  0.41893  1.0000
  H   H110      1.0  0.31000  0.16995  0.42752  1.0000
  H   H111      1.0  0.34630  0.18828  0.42473  1.0000
  H   H112      1.0  0.34592  0.14519  0.24458  1.0000
  H   H113      1.0  0.30960  0.12734  0.24395  1.0000
  H   H114      1.0  0.28063  0.10646  0.34472  1.0000
  H   H115      1.0  0.22532  0.10650  0.34119  1.0000
  H   H116      1.0  0.28071  0.16174  0.32837  1.0000
  C   C186      1.0  0.88992  0.13617  0.34083  1.0000
  C   C187      1.0  0.87871  0.14654  0.33944  1.0000
  C   C188      1.0  0.85715  0.13612  0.33674  1.0000
  C   C189      1.0  0.84680  0.11454  0.33545  1.0000
  C   C190      1.0  0.85717  0.10332  0.33828  1.0000
  C   C191      1.0  0.87876  0.11459  0.34098  1.0000
  C   C192      1.0  0.84617  0.14704  0.33565  1.0000
  C   C193      1.0  0.85282  0.16484  0.28310  1.0000
  C   C194      1.0  0.84214  0.17563  0.28261  1.0000
  C   C195      1.0  0.82434  0.16905  0.33467  1.0000
  C   C196      1.0  0.81761  0.15127  0.38712  1.0000
  C   C197      1.0  0.82831  0.14051  0.38759  1.0000
  C   C198      1.0  0.91183  0.14722  0.34127  1.0000
  C   C199      1.0  0.92298  0.16468  0.28672  1.0000
  C   C200      1.0  0.94443  0.17548  0.28621  1.0000
  C   C201      1.0  0.95568  0.16921  0.33992  1.0000
  C   C202      1.0  0.94465  0.15182  0.39462  1.0000
  C   C203      1.0  0.92319  0.14106  0.39524  1.0000
  C   C204      1.0  0.84616  0.08135  0.33844  1.0000
  C   C205      1.0  0.85346  0.06994  0.29211  1.0000
  C   C206      1.0  0.84277  0.04848  0.29318  1.0000
  C   C207      1.0  0.82411  0.03738  0.33972  1.0000
  C   C208      1.0  0.81664  0.04866  0.38542  1.0000
  C   C209      1.0  0.82750  0.07012  0.38539  1.0000
  H   H117      1.0  0.95182  0.18812  0.24640  1.0000
  H   H118      1.0  0.91555  0.16959  0.24533  1.0000
  H   H119      1.0  0.95222  0.14672  0.43420  1.0000
  H   H120      1.0  0.91590  0.12874  0.43689  1.0000
  H   H121      1.0  0.86663  0.07716  0.25558  1.0000
  H   H122      1.0  0.84884  0.04097  0.25963  1.0000
  H   H123      1.0  0.82163  0.07748  0.42144  1.0000
  H   H124      1.0  0.80306  0.04131  0.41898  1.0000
  H   H125      1.0  0.82304  0.12795  0.42789  1.0000
  H   H126      1.0  0.80470  0.14591  0.42527  1.0000
  H   H127      1.0  0.84762  0.18851  0.24425  1.0000
  H   H128      1.0  0.86546  0.17004  0.24335  1.0000
  H   H129      1.0  0.88646  0.16211  0.34341  1.0000
  H   H130      1.0  0.88662  0.10687  0.34286  1.0000
  H   H131      1.0  0.83127  0.10681  0.32948  1.0000
  C   C210      1.0  0.25090  0.52960  0.34636  1.0000
  C   C211      1.0  0.24032  0.50813  0.33945  1.0000
  C   C212      1.0  0.25073  0.49690  0.33899  1.0000
  C   C213      1.0  0.27236  0.50796  0.34345  1.0000
  C   C214      1.0  0.28335  0.52943  0.35021  1.0000
  C   C215      1.0  0.27236  0.53992  0.35042  1.0000
  C   C216      1.0  0.23973  0.47502  0.33713  1.0000
  C   C217      1.0  0.22191  0.46364  0.38931  1.0000
  C   C218      1.0  0.21129  0.44218  0.38902  1.0000
  C   C219      1.0  0.21808  0.43119  0.33660  1.0000
  C   C220      1.0  0.23584  0.44245  0.28435  1.0000
  C   C221      1.0  0.24644  0.46392  0.28465  1.0000
  C   C222      1.0  0.24088  0.54125  0.34966  1.0000
  C   C223      1.0  0.22833  0.54081  0.27857  1.0000
  C   C224      1.0  0.22184  0.55527  0.27410  1.0000
  C   C225      1.0  0.22756  0.57043  0.34087  1.0000
  C   C226      1.0  0.23937  0.57027  0.41384  1.0000
  C   C227      1.0  0.24584  0.55587  0.41833  1.0000
  C   C228      1.0  0.30500  0.54095  0.35673  1.0000
  C   C229      1.0  0.31424  0.55572  0.42516  1.0000
  C   C230      1.0  0.33514  0.57010  0.42257  1.0000
  C   C231      1.0  0.34754  0.57010  0.35186  1.0000
  C   C232      1.0  0.33852  0.55474  0.28565  1.0000
  C   C233      1.0  0.31754  0.54031  0.28813  1.0000
  H   H132      1.0  0.21357  0.55519  0.21970  1.0000
  H   H133      1.0  0.22501  0.53088  0.22635  1.0000
  H   H134      1.0  0.24437  0.58137  0.46199  1.0000
  H   H135      1.0  0.25518  0.55687  0.47004  1.0000
  H   H136      1.0  0.30558  0.55691  0.47487  1.0000
  H   H137      1.0  0.34093  0.58137  0.47004  1.0000
  H   H138      1.0  0.31124  0.53026  0.23607  1.0000
  H   H139      1.0  0.34702  0.55452  0.23280  1.0000
  H   H140      1.0  0.25910  0.47139  0.24504  1.0000
  H   H141      1.0  0.24140  0.43507  0.24632  1.0000
  H   H142      1.0  0.19845  0.43461  0.42756  1.0000
  H   H143      1.0  0.21665  0.47089  0.42989  1.0000
  H   H144      1.0  0.22474  0.50061  0.33572  1.0000
  H   H145      1.0  0.28021  0.55554  0.35247  1.0000
  H   H146      1.0  0.28027  0.50028  0.34598  1.0000
  C   C234      1.0  0.46281  0.70900  0.35083  1.0000
  C   C235      1.0  0.48428  0.72005  0.34380  1.0000
  C   C236      1.0  0.49531  0.74168  0.33793  1.0000
  C   C237      1.0  0.48395  0.75198  0.33785  1.0000
  C   C238      1.0  0.46250  0.74137  0.34601  1.0000
  C   C239      1.0  0.45225  0.71992  0.35086  1.0000
  C   C240      1.0  0.51724  0.75277  0.33520  1.0000
  C   C241      1.0  0.52839  0.74534  0.28766  1.0000
  C   C242      1.0  0.54985  0.75596  0.28715  1.0000
  C   C243      1.0  0.56116  0.77463  0.33336  1.0000
  C   C244      1.0  0.55014  0.78224  0.38014  1.0000
  C   C245      1.0  0.52869  0.77148  0.38154  1.0000
  C   C246      1.0  0.45136  0.68735  0.35754  1.0000
  C   C247      1.0  0.45202  0.67484  0.28885  1.0000
  C   C248      1.0  0.43759  0.65385  0.28620  1.0000
  C   C249      1.0  0.42221  0.64480  0.35230  1.0000
  C   C250      1.0  0.42219  0.65718  0.42313  1.0000
  C   C251      1.0  0.43657  0.67807  0.42586  1.0000
  C   C252      1.0  0.45081  0.75136  0.35004  1.0000
  C   C253      1.0  0.43625  0.74631  0.41903  1.0000
  C   C254      1.0  0.42193  0.75289  0.41566  1.0000
  C   C255      1.0  0.42180  0.76492  0.34352  1.0000
  C   C256      1.0  0.43695  0.77077  0.27659  1.0000
  C   C257      1.0  0.45133  0.76415  0.27993  1.0000
  H   H147      1.0  0.43780  0.64539  0.23319  1.0000
  H   H148      1.0  0.46204  0.68116  0.23673  1.0000
  H   H149      1.0  0.41093  0.65135  0.47062  1.0000
  H   H150      1.0  0.43538  0.68672  0.47569  1.0000
  H   H151      1.0  0.43522  0.73683  0.47020  1.0000
  H   H152      1.0  0.41082  0.74778  0.46380  1.0000
  H   H153      1.0  0.46125  0.76758  0.22758  1.0000
  H   H154      1.0  0.43707  0.77920  0.22278  1.0000
  H   H155      1.0  0.52152  0.77738  0.41872  1.0000
  H   H156      1.0  0.55768  0.79579  0.41384  1.0000
  H   H157      1.0  0.55720  0.74976  0.25323  1.0000
  H   H158      1.0  0.52096  0.73207  0.25193  1.0000
  H   H159      1.0  0.49196  0.71215  0.34677  1.0000
  H   H160      1.0  0.43664  0.71203  0.35342  1.0000
  H   H161      1.0  0.49136  0.76753  0.33300  1.0000
  C   C258      1.0  0.28319  0.74181  0.34747  1.0000
  C   C259      1.0  0.27217  0.75227  0.34124  1.0000
  C   C260      1.0  0.25054  0.74167  0.33783  1.0000
  C   C261      1.0  0.24014  0.72003  0.33890  1.0000
  C   C262      1.0  0.25076  0.70917  0.34536  1.0000
  C   C263      1.0  0.27222  0.72033  0.34839  1.0000
  C   C264      1.0  0.23952  0.75253  0.33642  1.0000
  C   C265      1.0  0.24601  0.77019  0.28310  1.0000
  C   C266      1.0  0.23541  0.78104  0.28327  1.0000
  C   C267      1.0  0.21786  0.77469  0.33692  1.0000
  C   C268      1.0  0.21128  0.75705  0.39010  1.0000
  C   C269      1.0  0.22190  0.74621  0.38986  1.0000
  C   C270      1.0  0.30485  0.75198  0.35281  1.0000
  C   C271      1.0  0.31717  0.76494  0.28317  1.0000
  C   C272      1.0  0.33813  0.77144  0.27940  1.0000
  C   C273      1.0  0.34736  0.76529  0.34545  1.0000
  C   C274      1.0  0.33519  0.75313  0.41725  1.0000
  C   C275      1.0  0.31431  0.74664  0.42099  1.0000
  C   C276      1.0  0.24077  0.68750  0.34906  1.0000
  C   C277      1.0  0.24585  0.67793  0.41765  1.0000
  C   C278      1.0  0.23939  0.65706  0.41345  1.0000
  C   C279      1.0  0.22753  0.64503  0.34071  1.0000
  C   C280      1.0  0.22168  0.65438  0.27404  1.0000
  C   C281      1.0  0.22812  0.67534  0.27834  1.0000
  H   H162      1.0  0.34644  0.77993  0.22572  1.0000
  H   H163      1.0  0.31070  0.76847  0.23106  1.0000
  H   H164      1.0  0.34115  0.74783  0.46475  1.0000
  H   H165      1.0  0.30580  0.73697  0.47151  1.0000
  H   H166      1.0  0.25525  0.68632  0.46913  1.0000
  H   H167      1.0  0.24447  0.65100  0.46147  1.0000
  H   H168      1.0  0.22476  0.68190  0.22604  1.0000
  H   H169      1.0  0.21339  0.64617  0.21977  1.0000
  H   H170      1.0  0.21680  0.73381  0.43101  1.0000
  H   H171      1.0  0.19858  0.75188  0.42950  1.0000
  H   H172      1.0  0.24077  0.79383  0.24437  1.0000
  H   H173      1.0  0.25851  0.77525  0.24253  1.0000
  H   H174      1.0  0.28007  0.76786  0.34308  1.0000
  H   H175      1.0  0.28010  0.71258  0.35018  1.0000
  H   H176      1.0  0.22456  0.71196  0.33593  1.0000
  C   C282      1.0  0.74766  0.45768  0.35028  1.0000
  C   C283      1.0  0.75814  0.47916  0.34371  1.0000
  C   C284      1.0  0.74756  0.49020  0.33953  1.0000
  C   C285      1.0  0.72591  0.47898  0.34013  1.0000
  C   C286      1.0  0.71503  0.45751  0.34680  1.0000
  C   C287      1.0  0.72617  0.44719  0.35060  1.0000
  C   C288      1.0  0.75842  0.51208  0.33784  1.0000
  C   C289      1.0  0.77605  0.52320  0.28434  1.0000
  C   C290      1.0  0.78687  0.54466  0.28401  1.0000
  C   C291      1.0  0.78052  0.55589  0.33743  1.0000
  C   C292      1.0  0.76292  0.54487  0.39086  1.0000
  C   C293      1.0  0.75210  0.52342  0.39104  1.0000
  C   C294      1.0  0.75779  0.44616  0.35666  1.0000
  C   C295      1.0  0.77094  0.44680  0.28794  1.0000
  C   C296      1.0  0.77744  0.43232  0.28519  1.0000
  C   C297      1.0  0.77110  0.41695  0.35132  1.0000
  C   C298      1.0  0.75876  0.41697  0.42226  1.0000
  C   C299      1.0  0.75226  0.43137  0.42500  1.0000
  C   C300      1.0  0.69336  0.44586  0.35007  1.0000
  C   C301      1.0  0.68368  0.43120  0.41856  1.0000
  C   C302      1.0  0.66282  0.41679  0.41380  1.0000
  C   C303      1.0  0.65088  0.41669  0.34083  1.0000
  C   C304      1.0  0.66032  0.43193  0.27442  1.0000
  C   C305      1.0  0.68128  0.44638  0.27906  1.0000
  H   H177      1.0  0.78608  0.43250  0.23211  1.0000
  H   H178      1.0  0.77462  0.45680  0.23573  1.0000
  H   H179      1.0  0.75331  0.40571  0.46975  1.0000
  H   H180      1.0  0.74247  0.43021  0.47491  1.0000
  H   H181      1.0  0.69201  0.43012  0.47015  1.0000
  H   H182      1.0  0.65670  0.40564  0.46172  1.0000
  H   H183      1.0  0.68791  0.45634  0.22694  1.0000
  H   H184      1.0  0.65217  0.43205  0.21993  1.0000
  H   H185      1.0  0.73971  0.51613  0.43228  1.0000
  H   H186      1.0  0.75775  0.55243  0.43010  1.0000
  H   H187      1.0  0.79964  0.55207  0.24494  1.0000
  H   H188      1.0  0.78111  0.51574  0.24396  1.0000
  H   H189      1.0  0.77373  0.48685  0.34592  1.0000
  H   H190      1.0  0.71841  0.43157  0.35257  1.0000
  H   H191      1.0  0.71787  0.48652  0.33666  1.0000
  C   C306      1.0  0.53555  0.27787  0.34307  1.0000
  C   C307      1.0  0.51408  0.26700  0.33598  1.0000
  C   C308      1.0  0.50284  0.24536  0.33498  1.0000
  C   C309      1.0  0.51389  0.23477  0.33897  1.0000
  C   C310      1.0  0.53536  0.24524  0.34573  1.0000
  C   C311      1.0  0.54586  0.26672  0.34665  1.0000
  C   C312      1.0  0.48096  0.23450  0.33309  1.0000
  C   C313      1.0  0.46960  0.24095  0.38535  1.0000
  C   C314      1.0  0.44815  0.23015  0.38503  1.0000
  C   C315      1.0  0.43712  0.21238  0.33260  1.0000
  C   C316      1.0  0.44836  0.20587  0.28017  1.0000
  C   C317      1.0  0.46983  0.21671  0.28044  1.0000
  C   C318      1.0  0.54720  0.29954  0.34698  1.0000
  C   C319      1.0  0.54671  0.31173  0.27639  1.0000
  C   C320      1.0  0.56117  0.33270  0.27241  1.0000
  C   C321      1.0  0.57630  0.34205  0.33931  1.0000
  C   C322      1.0  0.57615  0.32999  0.41190  1.0000
  C   C323      1.0  0.56178  0.30911  0.41585  1.0000
  C   C324      1.0  0.54687  0.23510  0.35156  1.0000
  C   C325      1.0  0.56159  0.24045  0.42006  1.0000
  C   C326      1.0  0.57598  0.23395  0.41689  1.0000
  C   C327      1.0  0.57608  0.22181  0.34521  1.0000
  C   C328      1.0  0.56078  0.21564  0.27885  1.0000
  C   C329      1.0  0.54631  0.22215  0.28205  1.0000
  H   H192      1.0  0.56108  0.34094  0.21827  1.0000
  H   H193      1.0  0.53682  0.30518  0.22397  1.0000
  H   H194      1.0  0.58725  0.33604  0.46005  1.0000
  H   H195      1.0  0.56281  0.30070  0.46717  1.0000
  H   H196      1.0  0.56270  0.25012  0.47049  1.0000
  H   H197      1.0  0.58721  0.23929  0.46450  1.0000
  H   H198      1.0  0.53632  0.21855  0.22986  1.0000
  H   H199      1.0  0.56065  0.20714  0.22531  1.0000
  H   H200      1.0  0.47728  0.21153  0.24070  1.0000
  H   H201      1.0  0.44096  0.19298  0.24186  1.0000
  H   H202      1.0  0.44060  0.23545  0.42353  1.0000
  H   H203      1.0  0.47686  0.25344  0.42605  1.0000
  H   H204      1.0  0.50657  0.27506  0.33258  1.0000
  H   H205      1.0  0.56148  0.27448  0.34883  1.0000
  H   H206      1.0  0.50620  0.21918  0.34089  1.0000
  C   C330      1.0  0.71511  0.24563  0.34741  1.0000
  C   C331      1.0  0.72600  0.23505  0.33980  1.0000
  C   C332      1.0  0.74764  0.24547  0.33847  1.0000
  C   C333      1.0  0.75822  0.26710  0.34275  1.0000
  C   C334      1.0  0.74775  0.27810  0.35001  1.0000
  C   C335      1.0  0.72626  0.26709  0.35108  1.0000
  C   C336      1.0  0.75851  0.23444  0.33606  1.0000
  C   C337      1.0  0.75208  0.21659  0.38799  1.0000
  C   C338      1.0  0.76287  0.20593  0.38713  1.0000
  C   C339      1.0  0.78061  0.21270  0.33444  1.0000
  C   C340      1.0  0.78709  0.23048  0.28231  1.0000
  C   C341      1.0  0.77626  0.24113  0.28315  1.0000
  C   C342      1.0  0.69344  0.23560  0.35174  1.0000
  C   C343      1.0  0.68116  0.22277  0.28170  1.0000
  C   C344      1.0  0.66017  0.21619  0.27820  1.0000
  C   C345      1.0  0.65089  0.22212  0.34485  1.0000
  C   C346      1.0  0.66304  0.23418  0.41691  1.0000
  C   C347      1.0  0.68394  0.24074  0.42045  1.0000
  C   C348      1.0  0.75788  0.29975  0.35636  1.0000
  C   C349      1.0  0.75242  0.30902  0.42491  1.0000
  C   C350      1.0  0.75889  0.32991  0.42216  1.0000
  C   C351      1.0  0.77117  0.34228  0.35107  1.0000
  C   C352      1.0  0.77744  0.33323  0.28470  1.0000
  C   C353      1.0  0.77095  0.31225  0.28742  1.0000
  H   H207      1.0  0.65186  0.20772  0.22448  1.0000
  H   H208      1.0  0.68764  0.21927  0.22951  1.0000
  H   H209      1.0  0.65706  0.23937  0.46479  1.0000
  H   H210      1.0  0.69240  0.25028  0.47140  1.0000
  H   H211      1.0  0.74269  0.30039  0.47505  1.0000
  H   H212      1.0  0.75350  0.33573  0.46990  1.0000
  H   H213      1.0  0.77462  0.30594  0.23515  1.0000
  H   H214      1.0  0.78606  0.34169  0.23159  1.0000
  H   H215      1.0  0.78142  0.25379  0.24362  1.0000
  H   H216      1.0  0.79995  0.23600  0.24383  1.0000
  H   H217      1.0  0.75758  0.19305  0.42542  1.0000
  H   H218      1.0  0.73962  0.21134  0.42887  1.0000
  H   H219      1.0  0.71794  0.21948  0.33629  1.0000
  H   H220      1.0  0.71850  0.27495  0.35353  1.0000
  H   H221      1.0  0.77382  0.27501  0.34454  1.0000
  C   C354      1.0  0.20740  0.40939  0.33716  1.0000
  C   C355      1.0  0.20416  0.39847  0.41845  1.0000
  C   C356      1.0  0.19345  0.37693  0.41937  1.0000
  H   H222      1.0  0.20220  0.36428  0.50362  1.0000
  O   O43       1.0  0.21140  0.40846  0.49773  1.0000
  H   H223      1.0  0.22566  0.41166  0.50195  1.0000
  C   C357      1.0  0.58300  0.78544  0.33329  1.0000
  C   C358      1.0  0.59412  0.79104  0.41484  1.0000
  C   C359      1.0  0.61569  0.80137  0.41482  1.0000
  C   C360      1.0  0.62681  0.80730  0.33330  1.0000
  O   O44       1.0  0.62569  0.80692  0.49495  1.0000
  H   H224      1.0  0.62429  0.79445  0.52208  1.0000
  O   O45       1.0  0.58413  0.78519  0.49491  1.0000
  H   H225      1.0  0.58557  0.79756  0.52330  1.0000
  C   C361      1.0  0.20717  0.78580  0.33768  1.0000
  C   C362      1.0  0.20390  0.79347  0.41891  1.0000
  C   C363      1.0  0.19320  0.80431  0.41965  1.0000
  H   H226      1.0  0.20174  0.82551  0.50490  1.0000
  O   O46       1.0  0.21108  0.79070  0.49830  1.0000
  H   H227      1.0  0.22534  0.80174  0.50272  1.0000
  C   C364      1.0  0.79158  0.57769  0.33766  1.0000
  C   C365      1.0  0.79938  0.58874  0.41855  1.0000
  C   C366      1.0  0.81019  0.61028  0.41876  1.0000
  C   C367      1.0  0.81363  0.62143  0.33801  1.0000
  O   O47       1.0  0.81736  0.62004  0.49857  1.0000
  H   H228      1.0  0.83155  0.62307  0.50320  1.0000
  O   O48       1.0  0.79676  0.57889  0.49811  1.0000
  H   H229      1.0  0.80783  0.57571  0.50228  1.0000
  C   C368      1.0  0.41531  0.20133  0.33298  1.0000
  C   C369      1.0  0.40431  0.19404  0.41432  1.0000
  C   C370      1.0  0.38276  0.18325  0.41482  1.0000
  C   C371      1.0  0.37157  0.17941  0.33398  1.0000
  O   O49       1.0  0.37306  0.17646  0.49499  1.0000
  H   H230      1.0  0.37002  0.16228  0.50103  1.0000
  O   O50       1.0  0.41419  0.19704  0.49408  1.0000
  H   H231      1.0  0.41737  0.18599  0.49972  1.0000
  C   C372      1.0  0.79165  0.20194  0.33434  1.0000
  C   C373      1.0  0.79897  0.19816  0.41546  1.0000
  C   C374      1.0  0.80973  0.18737  0.41554  1.0000
  C   C375      1.0  0.81351  0.18004  0.33449  1.0000
  O   O51       1.0  0.81655  0.18442  0.49553  1.0000
  H   H232      1.0  0.83075  0.19552  0.50145  1.0000
  O   O52       1.0  0.79602  0.20500  0.49541  1.0000
  H   H233      1.0  0.80709  0.21922  0.50112  1.0000
  C   C376      1.0  0.20175  0.18509  0.41773  1.0000
  O   O53       1.0  0.20674  0.18023  0.49818  1.0000
  H   H234      1.0  0.19617  0.16610  0.51099  1.0000
  C   C377      1.0  0.80681  0.00439  0.42149  1.0000
  C   C378      1.0  0.79642  0.98281  0.42158  1.0000
  O   O54       1.0  0.81213  0.01437  0.50168  1.0000
  O   O55       1.0  0.79021  0.97282  0.50150  1.0000
  H   H235      1.0  0.79958  0.01290  0.52817  1.0000
  H   H236      1.0  0.80243  0.97417  0.53103  1.0000
  C   C379      1.0  0.98858  0.78833  0.41474  1.0000
  O   O56       1.0  0.97868  0.78089  0.49406  1.0000
  H   H237      1.0  0.97559  0.76666  0.49761  1.0000
  C   C380      1.0  0.79608  0.80105  0.41208  1.0000
  C   C381      1.0  0.80734  0.79073  0.41226  1.0000
  O   O57       1.0  0.79158  0.80656  0.49217  1.0000
  O   O58       1.0  0.81133  0.78475  0.49234  1.0000
  H   H238      1.0  0.78059  0.79405  0.51945  1.0000
  H   H239      1.0  0.82220  0.79708  0.52130  1.0000
  C   C382      1.0  0.19321  0.98281  0.42430  1.0000
  C   C383      1.0  0.20369  0.00436  0.42511  1.0000
  O   O59       1.0  0.21186  0.01428  0.50376  1.0000
  H   H240      1.0  0.20229  0.97012  0.50683  1.0000
  H   H241      1.0  0.20047  0.01317  0.53978  1.0000
  C   C384      1.0  0.98871  0.18841  0.41931  1.0000
  O   O60       1.0  0.97901  0.18618  0.49900  1.0000
  H   H242      1.0  0.97592  0.19733  0.50216  1.0000
  C   C385      1.0  0.21417  0.59174  0.40168  1.0000
  C   C386      1.0  0.21417  0.61036  0.40166  1.0000
  O   O61       1.0  0.20599  0.57916  0.47370  1.0000
  O   O62       1.0  0.20599  0.61477  0.47365  1.0000
  C   C387      1.0  0.40052  0.61041  0.41560  1.0000
  C   C388      1.0  0.38191  0.59178  0.41548  1.0000
  O   O63       1.0  0.41279  0.61512  0.48894  1.0000
  O   O64       1.0  0.37718  0.57950  0.48878  1.0000
  H   H243      1.0  0.42374  0.61237  0.47227  1.0000
  H   H244      1.0  0.37993  0.56855  0.47209  1.0000
  C   C389      1.0  0.38194  0.77823  0.40678  1.0000
  C   C390      1.0  0.40052  0.77815  0.40626  1.0000
  O   O65       1.0  0.37750  0.78614  0.47969  1.0000
  O   O66       1.0  0.41304  0.78600  0.47870  1.0000
  H   H245      1.0  0.38026  0.79979  0.46198  1.0000
  H   H246      1.0  0.42403  0.79956  0.46054  1.0000
  C   C391      1.0  0.78384  0.39528  0.41456  1.0000
  C   C392      1.0  0.78386  0.37666  0.41448  1.0000
  O   O67       1.0  0.79142  0.40756  0.48785  1.0000
  O   O68       1.0  0.79148  0.37197  0.48766  1.0000
  H   H247      1.0  0.80512  0.41852  0.47103  1.0000
  H   H248      1.0  0.80518  0.37475  0.47078  1.0000
  C   C393      1.0  0.59754  0.37669  0.40079  1.0000
  C   C394      1.0  0.61615  0.39532  0.40117  1.0000
  O   O69       1.0  0.58491  0.37221  0.47270  1.0000
  O   O70       1.0  0.62050  0.40784  0.47338  1.0000
  H   H249      1.0  0.57399  0.37480  0.45364  1.0000
  H   H250      1.0  0.61790  0.41877  0.45445  1.0000
  C   C395      1.0  0.61635  0.20897  0.40722  1.0000
  C   C396      1.0  0.59769  0.20889  0.40734  1.0000
  O   O71       1.0  0.62096  0.20112  0.47984  1.0000
  O   O72       1.0  0.58529  0.20102  0.48011  1.0000
  H   H251      1.0  0.61835  0.18754  0.46186  1.0000
  H   H252      1.0  0.57440  0.18737  0.46238  1.0000
