data_image0
_chemical_formula_structural       C6N2H4C6N2H4C6N2H4C2H2C2H5C2H2C2H5C2H2C2H5C2H2C2H5C2H2C2H5C2H2C2H5C3H2C3H2C3H2C3H2C3H2C3H2C4NC2NCH2CHC4NC2NCH2CHC4NC2NCH2CHC4NC2NCH2CHC4NC2NCH2CHC4NC2NCH2CHC6N2H4C6N2H4C6N2H4C2H2C2H5C2H2C2H5C2H2C2H5C2H2C2H5C2H2C2H5C2H2C2H5C3H2C3H2C3H2C3H2C3H2C3H2C4NC2NCH2CHC4NC2NCH2CHC4NC2NCH2CHC4NC2NCH2CHC4NC2NCH2CHC4NC2NCH2CHC6N2H4C6N2H4C6N2H4C2H2C2H5C2H2C2H5C2H2C2H5C2H2C2H5C2H2C2H5C2H2C2H5C3H2C3H2C3H2C3H2C3H2C3H2C4NC2NCH2CHC4NC2NCH2CHC4NC2NCH2CHC4NC2NCH2CHC4NC2NCH2CHC4NC2NCH2CHC6N2H4C6N2H4C6N2H4C2H2C2H5C2H2C2H5C2H2C2H5C2H2C2H5C2H2C2H5C2H2C2H5C3H2C3H2C3H2C3H2C3H2C3H2C4NC2NCH2CHC4NC2NCH2CHC4NC2NCH2CHC4NC2NCH2CHC4NC2NCH2CHC4NC2NCH2CH
_chemical_formula_sum              "C432 N72 H336"
_cell_length_a       46.6303
_cell_length_b       46.6304
_cell_length_c       15.0192
_cell_angle_alpha    90
_cell_angle_beta     90
_cell_angle_gamma    120

_space_group_name_H-M_alt    "P 1"
_space_group_IT_number       1

loop_
  _space_group_symop_operation_xyz
  'x, y, z'

loop_
  _atom_site_type_symbol
  _atom_site_label
  _atom_site_symmetry_multiplicity
  _atom_site_fract_x
  _atom_site_fract_y
  _atom_site_fract_z
  _atom_site_occupancy
  C   C1        1.0  0.48091  0.23983  0.28769  1.0000
  C   C2        1.0  0.42922  0.18594  0.32567  1.0000
  C   C3        1.0  0.46112  0.20391  0.28282  1.0000
  C   C4        1.0  0.01722  0.25890  0.28762  1.0000
  C   C5        1.0  0.03698  0.29483  0.28283  1.0000
  C   C6        1.0  0.06882  0.31280  0.32595  1.0000
  N   N1        1.0  0.47273  0.18686  0.23586  1.0000
  N   N2        1.0  0.02540  0.31187  0.23575  1.0000
  H   H1        1.0  0.99061  0.19807  0.19304  1.0000
  H   H2        1.0  0.46303  0.16312  0.23958  1.0000
  H   H3        1.0  0.03503  0.33560  0.23971  1.0000
  H   H4        1.0  0.50750  0.30066  0.19299  1.0000
  C   C7        1.0  0.25859  0.24075  0.28807  1.0000
  C   C8        1.0  0.31250  0.24292  0.32549  1.0000
  C   C9        1.0  0.29451  0.25688  0.28294  1.0000
  C   C10       1.0  0.23953  0.25799  0.28801  1.0000
  C   C11       1.0  0.20361  0.24185  0.28291  1.0000
  C   C12       1.0  0.18562  0.25578  0.32566  1.0000
  N   N3        1.0  0.31153  0.28554  0.23596  1.0000
  N   N4        1.0  0.18659  0.21322  0.23585  1.0000
  H   H5        1.0  0.30028  0.29221  0.19325  1.0000
  H   H6        1.0  0.33528  0.29952  0.23935  1.0000
  H   H7        1.0  0.16285  0.19917  0.23951  1.0000
  H   H8        1.0  0.19783  0.20652  0.19323  1.0000
  C   C13       1.0  0.25766  0.01753  0.28785  1.0000
  C   C14       1.0  0.25543  0.06921  0.32564  1.0000
  C   C15       1.0  0.24150  0.03730  0.28292  1.0000
  C   C16       1.0  0.24041  0.48122  0.28805  1.0000
  C   C17       1.0  0.25655  0.46143  0.28299  1.0000
  C   C18       1.0  0.24259  0.42949  0.32560  1.0000
  N   N5        1.0  0.21284  0.02567  0.23594  1.0000
  N   N6        1.0  0.28521  0.47306  0.23603  1.0000
  H   H9        1.0  0.20617  0.50776  0.19321  1.0000
  H   H10       1.0  0.19882  0.03539  0.23951  1.0000
  H   H11       1.0  0.29919  0.46331  0.23948  1.0000
  H   H12       1.0  0.29185  0.99094  0.19321  1.0000
  C   C19       1.0  0.09445  0.22655  0.27822  1.0000
  C   C20       1.0  0.12517  0.22688  0.27174  1.0000
  H   H13       1.0  0.13037  0.21991  0.21260  1.0000
  H   H14       1.0  0.07850  0.21839  0.22562  1.0000
  C   C21       1.0  0.11561  0.25723  0.07959  1.0000
  C   C22       1.0  0.15336  0.27163  0.06890  1.0000
  H   H15       1.0  0.10437  0.23092  0.09447  1.0000
  H   H16       1.0  0.11071  0.26978  0.13390  1.0000
  H   H17       1.0  0.16446  0.26945  0.13056  1.0000
  H   H18       1.0  0.16454  0.29792  0.05321  1.0000
  H   H19       1.0  0.14872  0.22659  0.01178  1.0000
  C   C23       1.0  0.27186  0.36758  0.27825  1.0000
  C   C24       1.0  0.27151  0.39796  0.27175  1.0000
  H   H20       1.0  0.27845  0.41012  0.21257  1.0000
  H   H21       1.0  0.28001  0.35979  0.22563  1.0000
  C   C25       1.0  0.24116  0.35807  0.07964  1.0000
  C   C26       1.0  0.22675  0.38140  0.06891  1.0000
  H   H22       1.0  0.26747  0.37314  0.09454  1.0000
  H   H23       1.0  0.22861  0.34061  0.13394  1.0000
  H   H24       1.0  0.22890  0.39467  0.13058  1.0000
  H   H25       1.0  0.20047  0.36629  0.05317  1.0000
  H   H26       1.0  0.27181  0.42183  0.01189  1.0000
  C   C27       1.0  0.13082  0.40396  0.27839  1.0000
  C   C28       1.0  0.10043  0.37324  0.27191  1.0000
  H   H27       1.0  0.08826  0.36802  0.21275  1.0000
  H   H28       1.0  0.13861  0.41991  0.22577  1.0000
  C   C29       1.0  0.14034  0.38279  0.07980  1.0000
  C   C30       1.0  0.11700  0.34504  0.06908  1.0000
  H   H29       1.0  0.12526  0.39402  0.09471  1.0000
  H   H30       1.0  0.15780  0.38769  0.13409  1.0000
  H   H31       1.0  0.10373  0.33393  0.13075  1.0000
  H   H32       1.0  0.13211  0.33387  0.05333  1.0000
  H   H33       1.0  0.07658  0.34968  0.01208  1.0000
  C   C31       1.0  0.40366  0.27217  0.27817  1.0000
  C   C32       1.0  0.37294  0.27182  0.27166  1.0000
  H   H34       1.0  0.36771  0.27875  0.21248  1.0000
  H   H35       1.0  0.41960  0.28030  0.22554  1.0000
  C   C33       1.0  0.38247  0.24146  0.07956  1.0000
  C   C34       1.0  0.34472  0.22706  0.06885  1.0000
  H   H36       1.0  0.39371  0.26777  0.09444  1.0000
  H   H37       1.0  0.38737  0.22890  0.13386  1.0000
  H   H38       1.0  0.33361  0.22922  0.13051  1.0000
  H   H39       1.0  0.33354  0.20078  0.05311  1.0000
  H   H40       1.0  0.34936  0.27212  0.01182  1.0000
  C   C35       1.0  0.22623  0.13116  0.27829  1.0000
  C   C36       1.0  0.22655  0.10076  0.27179  1.0000
  H   H41       1.0  0.21962  0.08861  0.21260  1.0000
  H   H42       1.0  0.21810  0.13897  0.22565  1.0000
  C   C37       1.0  0.25693  0.14066  0.07969  1.0000
  C   C38       1.0  0.27133  0.11732  0.06897  1.0000
  H   H43       1.0  0.23062  0.12559  0.09460  1.0000
  H   H44       1.0  0.26949  0.15812  0.13398  1.0000
  H   H45       1.0  0.26918  0.10405  0.13063  1.0000
  H   H46       1.0  0.29762  0.13242  0.05321  1.0000
  H   H47       1.0  0.22627  0.07689  0.01198  1.0000
  C   C39       1.0  0.36726  0.09475  0.27828  1.0000
  C   C40       1.0  0.39766  0.12546  0.27180  1.0000
  H   H48       1.0  0.40984  0.13066  0.21266  1.0000
  H   H49       1.0  0.35947  0.07879  0.22571  1.0000
  C   C41       1.0  0.35776  0.11590  0.07964  1.0000
  C   C42       1.0  0.38111  0.15365  0.06895  1.0000
  H   H50       1.0  0.37283  0.10466  0.09452  1.0000
  H   H51       1.0  0.34030  0.11100  0.13394  1.0000
  H   H52       1.0  0.39439  0.16475  0.13061  1.0000
  H   H53       1.0  0.36600  0.16484  0.05328  1.0000
  H   H54       1.0  0.42152  0.14902  0.01183  1.0000
  C   C43       1.0  0.46234  0.25601  0.30755  1.0000
  C   C44       1.0  0.42903  0.23949  0.33549  1.0000
  C   C45       1.0  0.41471  0.20525  0.35157  1.0000
  H   H55       1.0  0.47377  0.28099  0.31481  1.0000
  H   H56       1.0  0.39040  0.19313  0.37151  1.0000
  C   C46       1.0  0.08337  0.29351  0.35162  1.0000
  C   C47       1.0  0.06909  0.25927  0.33554  1.0000
  C   C48       1.0  0.03580  0.24272  0.30738  1.0000
  H   H57       1.0  0.10766  0.30562  0.37174  1.0000
  H   H58       1.0  0.02437  0.21776  0.31483  1.0000
  C   C49       1.0  0.24240  0.20600  0.30797  1.0000
  C   C50       1.0  0.25894  0.18919  0.33556  1.0000
  C   C51       1.0  0.29320  0.20909  0.35130  1.0000
  H   H59       1.0  0.21742  0.19249  0.31524  1.0000
  H   H60       1.0  0.30533  0.19691  0.37128  1.0000
  C   C52       1.0  0.20491  0.28962  0.35133  1.0000
  C   C53       1.0  0.23916  0.30954  0.33552  1.0000
  C   C54       1.0  0.25571  0.29273  0.30796  1.0000
  H   H61       1.0  0.19280  0.30182  0.37125  1.0000
  H   H62       1.0  0.28069  0.30625  0.31526  1.0000
  C   C55       1.0  0.29242  0.03612  0.30751  1.0000
  C   C56       1.0  0.30918  0.06942  0.33557  1.0000
  C   C57       1.0  0.28924  0.08372  0.35164  1.0000
  H   H63       1.0  0.30596  0.02469  0.31505  1.0000
  H   H64       1.0  0.30143  0.10803  0.37161  1.0000
  C   C58       1.0  0.20877  0.41497  0.35150  1.0000
  C   C59       1.0  0.18887  0.42932  0.33566  1.0000
  C   C60       1.0  0.20567  0.46266  0.30800  1.0000
  H   H65       1.0  0.19659  0.39066  0.37144  1.0000
  H   H66       1.0  0.19214  0.47411  0.31520  1.0000
  C   C61       1.0  0.15037  0.24218  0.33751  1.0000
  C   C62       1.0  0.13873  0.24827  0.41865  1.0000
  C   C63       1.0  0.10960  0.25077  0.42155  1.0000
  C   C64       1.0  0.08902  0.24407  0.34680  1.0000
  N   N7        1.0  0.09870  0.25497  0.50103  1.0000
  C   C65       1.0  0.11392  0.25614  0.57839  1.0000
  C   C66       1.0  0.14328  0.25426  0.57666  1.0000
  N   N8        1.0  0.15444  0.25042  0.49674  1.0000
  C   C67       1.0  0.09882  0.25966  0.66044  1.0000
  H   H67       1.0  0.07251  0.24094  0.66217  1.0000
  H   H68       1.0  0.10080  0.28364  0.65739  1.0000
  C   C68       1.0  0.15937  0.25261  0.65976  1.0000
  H   H69       1.0  0.18575  0.26224  0.64929  1.0000
  C   C69       1.0  0.25619  0.40785  0.33751  1.0000
  C   C70       1.0  0.25017  0.39016  0.41871  1.0000
  C   C71       1.0  0.24770  0.35855  0.42165  1.0000
  C   C72       1.0  0.25443  0.34467  0.34696  1.0000
  N   N9        1.0  0.24350  0.34345  0.50111  1.0000
  C   C73       1.0  0.24230  0.35748  0.57846  1.0000
  C   C74       1.0  0.24417  0.38873  0.57671  1.0000
  N   N10       1.0  0.24799  0.40371  0.49679  1.0000
  C   C75       1.0  0.23876  0.33886  0.66050  1.0000
  H   H70       1.0  0.25748  0.33127  0.66227  1.0000
  H   H71       1.0  0.21478  0.31685  0.65740  1.0000
  C   C76       1.0  0.24579  0.40645  0.65981  1.0000
  H   H72       1.0  0.23616  0.42319  0.64932  1.0000
  C   C77       1.0  0.09051  0.34805  0.33773  1.0000
  C   C78       1.0  0.10823  0.35971  0.41888  1.0000
  C   C79       1.0  0.13985  0.38884  0.42180  1.0000
  C   C80       1.0  0.15373  0.40945  0.34711  1.0000
  N   N11       1.0  0.15495  0.39974  0.50126  1.0000
  C   C81       1.0  0.14092  0.38451  0.57862  1.0000
  C   C82       1.0  0.10967  0.35514  0.57688  1.0000
  N   N12       1.0  0.09468  0.34399  0.49697  1.0000
  C   C83       1.0  0.15954  0.39960  0.66066  1.0000
  H   H73       1.0  0.16712  0.42591  0.66243  1.0000
  H   H74       1.0  0.18156  0.39764  0.65755  1.0000
  C   C84       1.0  0.09195  0.33904  0.65998  1.0000
  H   H75       1.0  0.07520  0.31266  0.64950  1.0000
  C   C85       1.0  0.34775  0.25657  0.33748  1.0000
  C   C86       1.0  0.35939  0.25050  0.41864  1.0000
  C   C87       1.0  0.38853  0.24802  0.42157  1.0000
  C   C88       1.0  0.40915  0.25474  0.34689  1.0000
  N   N13       1.0  0.39942  0.24380  0.50103  1.0000
  C   C89       1.0  0.38419  0.24260  0.57838  1.0000
  C   C90       1.0  0.35481  0.24448  0.57664  1.0000
  N   N14       1.0  0.34367  0.24832  0.49672  1.0000
  C   C91       1.0  0.39926  0.23904  0.66041  1.0000
  H   H76       1.0  0.42558  0.25774  0.66219  1.0000
  H   H77       1.0  0.39726  0.21505  0.65730  1.0000
  C   C92       1.0  0.33871  0.24610  0.65974  1.0000
  H   H78       1.0  0.31234  0.23647  0.64925  1.0000
  C   C93       1.0  0.24179  0.09082  0.33764  1.0000
  C   C94       1.0  0.24786  0.10854  0.41879  1.0000
  C   C95       1.0  0.25037  0.14017  0.42170  1.0000
  C   C96       1.0  0.24366  0.15406  0.34702  1.0000
  N   N15       1.0  0.25459  0.15528  0.50116  1.0000
  C   C97       1.0  0.25578  0.14124  0.57851  1.0000
  C   C98       1.0  0.25389  0.10998  0.57678  1.0000
  N   N16       1.0  0.25004  0.09499  0.49687  1.0000
  C   C99       1.0  0.25932  0.15986  0.66055  1.0000
  H   H79       1.0  0.24061  0.16746  0.66233  1.0000
  H   H80       1.0  0.28330  0.18188  0.65744  1.0000
  C   C100      1.0  0.25229  0.09227  0.65988  1.0000
  H   H81       1.0  0.26192  0.07553  0.64937  1.0000
  C   C101      1.0  0.40753  0.15069  0.33750  1.0000
  C   C102      1.0  0.38983  0.13904  0.41870  1.0000
  C   C103      1.0  0.35820  0.10992  0.42159  1.0000
  C   C104      1.0  0.34431  0.08937  0.34679  1.0000
  N   N17       1.0  0.34310  0.09902  0.50107  1.0000
  C   C105      1.0  0.35715  0.11422  0.57843  1.0000
  C   C106      1.0  0.38841  0.14358  0.57670  1.0000
  N   N18       1.0  0.40339  0.15474  0.49679  1.0000
  C   C107      1.0  0.33854  0.09912  0.66048  1.0000
  H   H82       1.0  0.33095  0.07281  0.66220  1.0000
  H   H83       1.0  0.31653  0.10109  0.65745  1.0000
  C   C108      1.0  0.40614  0.15967  0.65981  1.0000
  H   H84       1.0  0.42289  0.18605  0.64935  1.0000
  C   C109      1.0  0.48091  0.73984  0.28769  1.0000
  C   C110      1.0  0.42922  0.68594  0.32567  1.0000
  C   C111      1.0  0.46112  0.70391  0.28282  1.0000
  C   C112      1.0  0.01722  0.75890  0.28762  1.0000
  C   C113      1.0  0.03698  0.79482  0.28283  1.0000
  C   C114      1.0  0.06882  0.81280  0.32595  1.0000
  N   N19       1.0  0.47273  0.68686  0.23586  1.0000
  N   N20       1.0  0.02540  0.81187  0.23575  1.0000
  H   H85       1.0  0.99061  0.69807  0.19304  1.0000
  H   H86       1.0  0.46302  0.66312  0.23958  1.0000
  H   H87       1.0  0.03503  0.83559  0.23971  1.0000
  H   H88       1.0  0.50749  0.80065  0.19299  1.0000
  C   C115      1.0  0.25859  0.74075  0.28807  1.0000
  C   C116      1.0  0.31250  0.74292  0.32549  1.0000
  C   C117      1.0  0.29451  0.75688  0.28294  1.0000
  C   C118      1.0  0.23953  0.75799  0.28801  1.0000
  C   C119      1.0  0.20361  0.74186  0.28291  1.0000
  C   C120      1.0  0.18562  0.75578  0.32566  1.0000
  N   N21       1.0  0.31153  0.78554  0.23596  1.0000
  N   N22       1.0  0.18659  0.71322  0.23585  1.0000
  H   H89       1.0  0.30028  0.79221  0.19325  1.0000
  H   H90       1.0  0.33528  0.79952  0.23935  1.0000
  H   H91       1.0  0.16285  0.69917  0.23951  1.0000
  H   H92       1.0  0.19783  0.70652  0.19323  1.0000
  C   C121      1.0  0.25766  0.51753  0.28785  1.0000
  C   C122      1.0  0.25544  0.56921  0.32564  1.0000
  C   C123      1.0  0.24150  0.53730  0.28292  1.0000
  C   C124      1.0  0.24041  0.98122  0.28805  1.0000
  C   C125      1.0  0.25655  0.96143  0.28299  1.0000
  C   C126      1.0  0.24259  0.92949  0.32560  1.0000
  N   N23       1.0  0.21284  0.52567  0.23594  1.0000
  N   N24       1.0  0.28521  0.97306  0.23603  1.0000
  H   H93       1.0  0.20617  0.00776  0.19321  1.0000
  H   H94       1.0  0.19882  0.53539  0.23951  1.0000
  H   H95       1.0  0.29919  0.96330  0.23948  1.0000
  H   H96       1.0  0.29185  0.49094  0.19321  1.0000
  C   C127      1.0  0.09445  0.72655  0.27822  1.0000
  C   C128      1.0  0.12517  0.72688  0.27174  1.0000
  H   H97       1.0  0.13038  0.71991  0.21260  1.0000
  H   H98       1.0  0.07849  0.71839  0.22562  1.0000
  C   C129      1.0  0.11561  0.75723  0.07959  1.0000
  C   C130      1.0  0.15336  0.77163  0.06890  1.0000
  H   H99       1.0  0.10437  0.73092  0.09447  1.0000
  H   H100      1.0  0.11071  0.76978  0.13390  1.0000
  H   H101      1.0  0.16446  0.76945  0.13056  1.0000
  H   H102      1.0  0.16454  0.79792  0.05321  1.0000
  H   H103      1.0  0.14872  0.72659  0.01178  1.0000
  C   C131      1.0  0.27186  0.86758  0.27825  1.0000
  C   C132      1.0  0.27151  0.89796  0.27175  1.0000
  H   H104      1.0  0.27845  0.91012  0.21257  1.0000
  H   H105      1.0  0.28001  0.85979  0.22563  1.0000
  C   C133      1.0  0.24116  0.85806  0.07964  1.0000
  C   C134      1.0  0.22675  0.88140  0.06891  1.0000
  H   H106      1.0  0.26747  0.87314  0.09454  1.0000
  H   H107      1.0  0.22861  0.84061  0.13394  1.0000
  H   H108      1.0  0.22890  0.89467  0.13058  1.0000
  H   H109      1.0  0.20047  0.86629  0.05317  1.0000
  H   H110      1.0  0.27180  0.92182  0.01189  1.0000
  C   C135      1.0  0.13082  0.90396  0.27839  1.0000
  C   C136      1.0  0.10043  0.87324  0.27191  1.0000
  H   H111      1.0  0.08826  0.86802  0.21275  1.0000
  H   H112      1.0  0.13861  0.91991  0.22577  1.0000
  C   C137      1.0  0.14034  0.88279  0.07980  1.0000
  C   C138      1.0  0.11700  0.84504  0.06908  1.0000
  H   H113      1.0  0.12526  0.89402  0.09471  1.0000
  H   H114      1.0  0.15780  0.88769  0.13409  1.0000
  H   H115      1.0  0.10373  0.83393  0.13075  1.0000
  H   H116      1.0  0.13211  0.83386  0.05333  1.0000
  H   H117      1.0  0.07658  0.84968  0.01208  1.0000
  C   C139      1.0  0.40366  0.77216  0.27817  1.0000
  C   C140      1.0  0.37294  0.77182  0.27166  1.0000
  H   H118      1.0  0.36772  0.77875  0.21248  1.0000
  H   H119      1.0  0.41960  0.78030  0.22554  1.0000
  C   C141      1.0  0.38247  0.74146  0.07956  1.0000
  C   C142      1.0  0.34472  0.72706  0.06885  1.0000
  H   H120      1.0  0.39371  0.76777  0.09444  1.0000
  H   H121      1.0  0.38737  0.72890  0.13386  1.0000
  H   H122      1.0  0.33361  0.72922  0.13051  1.0000
  H   H123      1.0  0.33354  0.70078  0.05311  1.0000
  H   H124      1.0  0.34936  0.77212  0.01182  1.0000
  C   C143      1.0  0.22623  0.63116  0.27829  1.0000
  C   C144      1.0  0.22655  0.60076  0.27179  1.0000
  H   H125      1.0  0.21962  0.58861  0.21260  1.0000
  H   H126      1.0  0.21810  0.63897  0.22565  1.0000
  C   C145      1.0  0.25693  0.64066  0.07969  1.0000
  C   C146      1.0  0.27134  0.61732  0.06897  1.0000
  H   H127      1.0  0.23062  0.62559  0.09460  1.0000
  H   H128      1.0  0.26949  0.65812  0.13398  1.0000
  H   H129      1.0  0.26918  0.60405  0.13063  1.0000
  H   H130      1.0  0.29762  0.63242  0.05321  1.0000
  H   H131      1.0  0.22627  0.57689  0.01198  1.0000
  C   C147      1.0  0.36727  0.59475  0.27828  1.0000
  C   C148      1.0  0.39766  0.62546  0.27180  1.0000
  H   H132      1.0  0.40984  0.63066  0.21266  1.0000
  H   H133      1.0  0.35948  0.57879  0.22571  1.0000
  C   C149      1.0  0.35776  0.61590  0.07964  1.0000
  C   C150      1.0  0.38111  0.65365  0.06895  1.0000
  H   H134      1.0  0.37283  0.60466  0.09452  1.0000
  H   H135      1.0  0.34030  0.61100  0.13394  1.0000
  H   H136      1.0  0.39439  0.66475  0.13061  1.0000
  H   H137      1.0  0.36600  0.66484  0.05328  1.0000
  H   H138      1.0  0.42152  0.64902  0.01183  1.0000
  C   C151      1.0  0.46234  0.75601  0.30755  1.0000
  C   C152      1.0  0.42903  0.73948  0.33549  1.0000
  C   C153      1.0  0.41471  0.70525  0.35157  1.0000
  H   H139      1.0  0.47376  0.78099  0.31481  1.0000
  H   H140      1.0  0.39040  0.69313  0.37151  1.0000
  C   C154      1.0  0.08337  0.79351  0.35162  1.0000
  C   C155      1.0  0.06909  0.75927  0.33554  1.0000
  C   C156      1.0  0.03580  0.74272  0.30738  1.0000
  H   H141      1.0  0.10766  0.80562  0.37174  1.0000
  H   H142      1.0  0.02437  0.71776  0.31483  1.0000
  C   C157      1.0  0.24240  0.70600  0.30797  1.0000
  C   C158      1.0  0.25894  0.68919  0.33556  1.0000
  C   C159      1.0  0.29320  0.70909  0.35130  1.0000
  H   H143      1.0  0.21742  0.69249  0.31524  1.0000
  H   H144      1.0  0.30533  0.69691  0.37128  1.0000
  C   C160      1.0  0.20491  0.78962  0.35133  1.0000
  C   C161      1.0  0.23916  0.80954  0.33552  1.0000
  C   C162      1.0  0.25571  0.79273  0.30796  1.0000
  H   H145      1.0  0.19280  0.80182  0.37125  1.0000
  H   H146      1.0  0.28069  0.80626  0.31526  1.0000
  C   C163      1.0  0.29242  0.53612  0.30751  1.0000
  C   C164      1.0  0.30918  0.56942  0.33557  1.0000
  C   C165      1.0  0.28924  0.58372  0.35164  1.0000
  H   H147      1.0  0.30596  0.52469  0.31505  1.0000
  H   H148      1.0  0.30143  0.60803  0.37161  1.0000
  C   C166      1.0  0.20877  0.91497  0.35150  1.0000
  C   C167      1.0  0.18886  0.92932  0.33566  1.0000
  C   C168      1.0  0.20567  0.96266  0.30800  1.0000
  H   H149      1.0  0.19659  0.89066  0.37144  1.0000
  H   H150      1.0  0.19214  0.97411  0.31520  1.0000
  C   C169      1.0  0.15038  0.74218  0.33751  1.0000
  C   C170      1.0  0.13873  0.74827  0.41865  1.0000
  C   C171      1.0  0.10960  0.75077  0.42155  1.0000
  C   C172      1.0  0.08902  0.74407  0.34680  1.0000
  N   N25       1.0  0.09870  0.75497  0.50103  1.0000
  C   C173      1.0  0.11392  0.75614  0.57839  1.0000
  C   C174      1.0  0.14329  0.75426  0.57666  1.0000
  N   N26       1.0  0.15443  0.75042  0.49674  1.0000
  C   C175      1.0  0.09882  0.75965  0.66044  1.0000
  H   H151      1.0  0.07251  0.74094  0.66217  1.0000
  H   H152      1.0  0.10080  0.78364  0.65739  1.0000
  C   C176      1.0  0.15937  0.75261  0.65976  1.0000
  H   H153      1.0  0.18575  0.76224  0.64929  1.0000
  C   C177      1.0  0.25619  0.90784  0.33751  1.0000
  C   C178      1.0  0.25017  0.89016  0.41871  1.0000
  C   C179      1.0  0.24770  0.85855  0.42165  1.0000
  C   C180      1.0  0.25443  0.84467  0.34696  1.0000
  N   N27       1.0  0.24350  0.84345  0.50111  1.0000
  C   C181      1.0  0.24230  0.85748  0.57846  1.0000
  C   C182      1.0  0.24417  0.88873  0.57671  1.0000
  N   N28       1.0  0.24799  0.90371  0.49679  1.0000
  C   C183      1.0  0.23876  0.83886  0.66050  1.0000
  H   H154      1.0  0.25748  0.83127  0.66227  1.0000
  H   H155      1.0  0.21478  0.81685  0.65740  1.0000
  C   C184      1.0  0.24579  0.90645  0.65981  1.0000
  H   H156      1.0  0.23616  0.92320  0.64932  1.0000
  C   C185      1.0  0.09051  0.84805  0.33773  1.0000
  C   C186      1.0  0.10823  0.85971  0.41888  1.0000
  C   C187      1.0  0.13985  0.88884  0.42180  1.0000
  C   C188      1.0  0.15374  0.90945  0.34711  1.0000
  N   N29       1.0  0.15495  0.89974  0.50126  1.0000
  C   C189      1.0  0.14092  0.88451  0.57862  1.0000
  C   C190      1.0  0.10967  0.85514  0.57688  1.0000
  N   N30       1.0  0.09469  0.84399  0.49697  1.0000
  C   C191      1.0  0.15954  0.89960  0.66066  1.0000
  H   H157      1.0  0.16713  0.92591  0.66243  1.0000
  H   H158      1.0  0.18156  0.89764  0.65755  1.0000
  C   C192      1.0  0.09195  0.83903  0.65998  1.0000
  H   H159      1.0  0.07520  0.81266  0.64950  1.0000
  C   C193      1.0  0.34775  0.75657  0.33748  1.0000
  C   C194      1.0  0.35939  0.75050  0.41864  1.0000
  C   C195      1.0  0.38853  0.74802  0.42157  1.0000
  C   C196      1.0  0.40915  0.75474  0.34689  1.0000
  N   N31       1.0  0.39942  0.74380  0.50103  1.0000
  C   C197      1.0  0.38419  0.74260  0.57838  1.0000
  C   C198      1.0  0.35481  0.74448  0.57664  1.0000
  N   N32       1.0  0.34367  0.74832  0.49672  1.0000
  C   C199      1.0  0.39926  0.73904  0.66041  1.0000
  H   H160      1.0  0.42558  0.75774  0.66219  1.0000
  H   H161      1.0  0.39726  0.71505  0.65730  1.0000
  C   C200      1.0  0.33871  0.74610  0.65974  1.0000
  H   H162      1.0  0.31234  0.73647  0.64925  1.0000
  C   C201      1.0  0.24179  0.59081  0.33764  1.0000
  C   C202      1.0  0.24786  0.60854  0.41879  1.0000
  C   C203      1.0  0.25037  0.64017  0.42170  1.0000
  C   C204      1.0  0.24366  0.65406  0.34702  1.0000
  N   N33       1.0  0.25459  0.65528  0.50116  1.0000
  C   C205      1.0  0.25578  0.64124  0.57851  1.0000
  C   C206      1.0  0.25389  0.60998  0.57678  1.0000
  N   N34       1.0  0.25004  0.59499  0.49687  1.0000
  C   C207      1.0  0.25932  0.65986  0.66055  1.0000
  H   H163      1.0  0.24061  0.66746  0.66233  1.0000
  H   H164      1.0  0.28330  0.68188  0.65744  1.0000
  C   C208      1.0  0.25229  0.59227  0.65988  1.0000
  H   H165      1.0  0.26192  0.57553  0.64937  1.0000
  C   C209      1.0  0.40753  0.65069  0.33750  1.0000
  C   C210      1.0  0.38984  0.63904  0.41870  1.0000
  C   C211      1.0  0.35820  0.60992  0.42159  1.0000
  C   C212      1.0  0.34431  0.58937  0.34679  1.0000
  N   N35       1.0  0.34310  0.59902  0.50107  1.0000
  C   C213      1.0  0.35715  0.61422  0.57843  1.0000
  C   C214      1.0  0.38841  0.64358  0.57670  1.0000
  N   N36       1.0  0.40339  0.65474  0.49679  1.0000
  C   C215      1.0  0.33854  0.59912  0.66048  1.0000
  H   H166      1.0  0.33095  0.57281  0.66220  1.0000
  H   H167      1.0  0.31653  0.60109  0.65745  1.0000
  C   C216      1.0  0.40614  0.65967  0.65981  1.0000
  H   H168      1.0  0.42289  0.68605  0.64935  1.0000
  C   C217      1.0  0.98091  0.23983  0.28769  1.0000
  C   C218      1.0  0.92922  0.18594  0.32567  1.0000
  C   C219      1.0  0.96112  0.20391  0.28282  1.0000
  C   C220      1.0  0.51722  0.25890  0.28762  1.0000
  C   C221      1.0  0.53698  0.29483  0.28283  1.0000
  C   C222      1.0  0.56882  0.31280  0.32595  1.0000
  N   N37       1.0  0.97273  0.18686  0.23586  1.0000
  N   N38       1.0  0.52540  0.31187  0.23575  1.0000
  H   H169      1.0  0.49061  0.19807  0.19304  1.0000
  H   H170      1.0  0.96302  0.16312  0.23958  1.0000
  H   H171      1.0  0.53502  0.33560  0.23971  1.0000
  H   H172      1.0  0.00749  0.30066  0.19299  1.0000
  C   C223      1.0  0.75859  0.24075  0.28807  1.0000
  C   C224      1.0  0.81250  0.24292  0.32549  1.0000
  C   C225      1.0  0.79451  0.25688  0.28294  1.0000
  C   C226      1.0  0.73953  0.25799  0.28801  1.0000
  C   C227      1.0  0.70361  0.24185  0.28291  1.0000
  C   C228      1.0  0.68562  0.25578  0.32566  1.0000
  N   N39       1.0  0.81153  0.28554  0.23596  1.0000
  N   N40       1.0  0.68659  0.21322  0.23585  1.0000
  H   H173      1.0  0.80028  0.29221  0.19325  1.0000
  H   H174      1.0  0.83528  0.29952  0.23935  1.0000
  H   H175      1.0  0.66285  0.19917  0.23951  1.0000
  H   H176      1.0  0.69783  0.20652  0.19323  1.0000
  C   C229      1.0  0.75766  0.01753  0.28785  1.0000
  C   C230      1.0  0.75543  0.06921  0.32564  1.0000
  C   C231      1.0  0.74150  0.03730  0.28292  1.0000
  C   C232      1.0  0.74041  0.48122  0.28805  1.0000
  C   C233      1.0  0.75655  0.46143  0.28299  1.0000
  C   C234      1.0  0.74259  0.42949  0.32560  1.0000
  N   N41       1.0  0.71284  0.02567  0.23594  1.0000
  N   N42       1.0  0.78521  0.47306  0.23603  1.0000
  H   H177      1.0  0.70617  0.50776  0.19321  1.0000
  H   H178      1.0  0.69882  0.03539  0.23951  1.0000
  H   H179      1.0  0.79919  0.46331  0.23948  1.0000
  H   H180      1.0  0.79185  0.99094  0.19321  1.0000
  C   C235      1.0  0.59445  0.22655  0.27822  1.0000
  C   C236      1.0  0.62517  0.22688  0.27174  1.0000
  H   H181      1.0  0.63038  0.21991  0.21260  1.0000
  H   H182      1.0  0.57850  0.21839  0.22562  1.0000
  C   C237      1.0  0.61561  0.25723  0.07959  1.0000
  C   C238      1.0  0.65336  0.27163  0.06890  1.0000
  H   H183      1.0  0.60437  0.23092  0.09447  1.0000
  H   H184      1.0  0.61071  0.26978  0.13390  1.0000
  H   H185      1.0  0.66446  0.26945  0.13056  1.0000
  H   H186      1.0  0.66454  0.29792  0.05321  1.0000
  H   H187      1.0  0.64872  0.22659  0.01178  1.0000
  C   C239      1.0  0.77186  0.36758  0.27825  1.0000
  C   C240      1.0  0.77151  0.39796  0.27175  1.0000
  H   H188      1.0  0.77845  0.41012  0.21257  1.0000
  H   H189      1.0  0.78001  0.35979  0.22563  1.0000
  C   C241      1.0  0.74116  0.35807  0.07964  1.0000
  C   C242      1.0  0.72675  0.38140  0.06891  1.0000
  H   H190      1.0  0.76747  0.37314  0.09454  1.0000
  H   H191      1.0  0.72861  0.34061  0.13394  1.0000
  H   H192      1.0  0.72890  0.39467  0.13058  1.0000
  H   H193      1.0  0.70047  0.36629  0.05317  1.0000
  H   H194      1.0  0.77181  0.42183  0.01189  1.0000
  C   C243      1.0  0.63082  0.40396  0.27839  1.0000
  C   C244      1.0  0.60043  0.37324  0.27191  1.0000
  H   H195      1.0  0.58826  0.36802  0.21275  1.0000
  H   H196      1.0  0.63862  0.41991  0.22577  1.0000
  C   C245      1.0  0.64034  0.38279  0.07980  1.0000
  C   C246      1.0  0.61700  0.34504  0.06908  1.0000
  H   H197      1.0  0.62526  0.39402  0.09471  1.0000
  H   H198      1.0  0.65780  0.38769  0.13409  1.0000
  H   H199      1.0  0.60373  0.33393  0.13075  1.0000
  H   H200      1.0  0.63211  0.33387  0.05333  1.0000
  H   H201      1.0  0.57658  0.34968  0.01208  1.0000
  C   C247      1.0  0.90366  0.27217  0.27817  1.0000
  C   C248      1.0  0.87294  0.27182  0.27166  1.0000
  H   H202      1.0  0.86771  0.27875  0.21248  1.0000
  H   H203      1.0  0.91960  0.28030  0.22554  1.0000
  C   C249      1.0  0.88247  0.24146  0.07956  1.0000
  C   C250      1.0  0.84472  0.22706  0.06885  1.0000
  H   H204      1.0  0.89371  0.26777  0.09444  1.0000
  H   H205      1.0  0.88737  0.22890  0.13386  1.0000
  H   H206      1.0  0.83361  0.22922  0.13051  1.0000
  H   H207      1.0  0.83354  0.20078  0.05311  1.0000
  H   H208      1.0  0.84936  0.27212  0.01182  1.0000
  C   C251      1.0  0.72623  0.13116  0.27829  1.0000
  C   C252      1.0  0.72655  0.10076  0.27179  1.0000
  H   H209      1.0  0.71962  0.08861  0.21260  1.0000
  H   H210      1.0  0.71810  0.13897  0.22565  1.0000
  C   C253      1.0  0.75693  0.14066  0.07969  1.0000
  C   C254      1.0  0.77134  0.11732  0.06897  1.0000
  H   H211      1.0  0.73062  0.12559  0.09460  1.0000
  H   H212      1.0  0.76949  0.15812  0.13398  1.0000
  H   H213      1.0  0.76918  0.10405  0.13063  1.0000
  H   H214      1.0  0.79762  0.13242  0.05321  1.0000
  H   H215      1.0  0.72627  0.07689  0.01198  1.0000
  C   C255      1.0  0.86726  0.09475  0.27828  1.0000
  C   C256      1.0  0.89766  0.12546  0.27180  1.0000
  H   H216      1.0  0.90984  0.13066  0.21266  1.0000
  H   H217      1.0  0.85948  0.07879  0.22571  1.0000
  C   C257      1.0  0.85776  0.11590  0.07964  1.0000
  C   C258      1.0  0.88111  0.15365  0.06895  1.0000
  H   H218      1.0  0.87283  0.10466  0.09452  1.0000
  H   H219      1.0  0.84030  0.11100  0.13394  1.0000
  H   H220      1.0  0.89439  0.16475  0.13061  1.0000
  H   H221      1.0  0.86600  0.16484  0.05328  1.0000
  H   H222      1.0  0.92152  0.14902  0.01183  1.0000
  C   C259      1.0  0.96234  0.25601  0.30755  1.0000
  C   C260      1.0  0.92903  0.23949  0.33549  1.0000
  C   C261      1.0  0.91471  0.20525  0.35157  1.0000
  H   H223      1.0  0.97376  0.28099  0.31481  1.0000
  H   H224      1.0  0.89040  0.19313  0.37151  1.0000
  C   C262      1.0  0.58337  0.29351  0.35162  1.0000
  C   C263      1.0  0.56909  0.25927  0.33554  1.0000
  C   C264      1.0  0.53580  0.24272  0.30738  1.0000
  H   H225      1.0  0.60766  0.30562  0.37174  1.0000
  H   H226      1.0  0.52437  0.21776  0.31483  1.0000
  C   C265      1.0  0.74240  0.20600  0.30797  1.0000
  C   C266      1.0  0.75894  0.18919  0.33556  1.0000
  C   C267      1.0  0.79320  0.20909  0.35130  1.0000
  H   H227      1.0  0.71742  0.19249  0.31524  1.0000
  H   H228      1.0  0.80533  0.19691  0.37128  1.0000
  C   C268      1.0  0.70491  0.28962  0.35133  1.0000
  C   C269      1.0  0.73916  0.30954  0.33552  1.0000
  C   C270      1.0  0.75571  0.29273  0.30796  1.0000
  H   H229      1.0  0.69280  0.30182  0.37125  1.0000
  H   H230      1.0  0.78069  0.30625  0.31526  1.0000
  C   C271      1.0  0.79242  0.03612  0.30751  1.0000
  C   C272      1.0  0.80918  0.06942  0.33557  1.0000
  C   C273      1.0  0.78924  0.08372  0.35164  1.0000
  H   H231      1.0  0.80596  0.02469  0.31505  1.0000
  H   H232      1.0  0.80143  0.10803  0.37161  1.0000
  C   C274      1.0  0.70877  0.41497  0.35150  1.0000
  C   C275      1.0  0.68886  0.42932  0.33566  1.0000
  C   C276      1.0  0.70567  0.46266  0.30800  1.0000
  H   H233      1.0  0.69659  0.39066  0.37144  1.0000
  H   H234      1.0  0.69215  0.47411  0.31520  1.0000
  C   C277      1.0  0.65037  0.24218  0.33751  1.0000
  C   C278      1.0  0.63873  0.24827  0.41865  1.0000
  C   C279      1.0  0.60961  0.25077  0.42155  1.0000
  C   C280      1.0  0.58902  0.24407  0.34680  1.0000
  N   N43       1.0  0.59870  0.25497  0.50103  1.0000
  C   C281      1.0  0.61392  0.25614  0.57839  1.0000
  C   C282      1.0  0.64329  0.25426  0.57666  1.0000
  N   N44       1.0  0.65444  0.25042  0.49674  1.0000
  C   C283      1.0  0.59882  0.25966  0.66044  1.0000
  H   H235      1.0  0.57251  0.24094  0.66217  1.0000
  H   H236      1.0  0.60080  0.28364  0.65739  1.0000
  C   C284      1.0  0.65937  0.25261  0.65976  1.0000
  H   H237      1.0  0.68575  0.26224  0.64929  1.0000
  C   C285      1.0  0.75619  0.40785  0.33751  1.0000
  C   C286      1.0  0.75017  0.39016  0.41871  1.0000
  C   C287      1.0  0.74770  0.35855  0.42165  1.0000
  C   C288      1.0  0.75443  0.34467  0.34696  1.0000
  N   N45       1.0  0.74350  0.34345  0.50111  1.0000
  C   C289      1.0  0.74230  0.35748  0.57846  1.0000
  C   C290      1.0  0.74417  0.38873  0.57671  1.0000
  N   N46       1.0  0.74799  0.40371  0.49679  1.0000
  C   C291      1.0  0.73876  0.33886  0.66050  1.0000
  H   H238      1.0  0.75748  0.33127  0.66227  1.0000
  H   H239      1.0  0.71478  0.31685  0.65740  1.0000
  C   C292      1.0  0.74579  0.40645  0.65981  1.0000
  H   H240      1.0  0.73616  0.42319  0.64932  1.0000
  C   C293      1.0  0.59051  0.34805  0.33773  1.0000
  C   C294      1.0  0.60823  0.35971  0.41888  1.0000
  C   C295      1.0  0.63985  0.38884  0.42180  1.0000
  C   C296      1.0  0.65373  0.40945  0.34711  1.0000
  N   N47       1.0  0.65495  0.39974  0.50126  1.0000
  C   C297      1.0  0.64092  0.38451  0.57862  1.0000
  C   C298      1.0  0.60967  0.35514  0.57688  1.0000
  N   N48       1.0  0.59468  0.34399  0.49697  1.0000
  C   C299      1.0  0.65954  0.39960  0.66066  1.0000
  H   H241      1.0  0.66712  0.42591  0.66243  1.0000
  H   H242      1.0  0.68156  0.39764  0.65755  1.0000
  C   C300      1.0  0.59195  0.33904  0.65998  1.0000
  H   H243      1.0  0.57521  0.31266  0.64950  1.0000
  C   C301      1.0  0.84775  0.25657  0.33748  1.0000
  C   C302      1.0  0.85939  0.25050  0.41864  1.0000
  C   C303      1.0  0.88853  0.24802  0.42157  1.0000
  C   C304      1.0  0.90915  0.25474  0.34689  1.0000
  N   N49       1.0  0.89942  0.24380  0.50103  1.0000
  C   C305      1.0  0.88419  0.24260  0.57838  1.0000
  C   C306      1.0  0.85481  0.24448  0.57664  1.0000
  N   N50       1.0  0.84367  0.24832  0.49672  1.0000
  C   C307      1.0  0.89926  0.23904  0.66041  1.0000
  H   H244      1.0  0.92558  0.25774  0.66219  1.0000
  H   H245      1.0  0.89727  0.21505  0.65730  1.0000
  C   C308      1.0  0.83871  0.24610  0.65974  1.0000
  H   H246      1.0  0.81234  0.23647  0.64925  1.0000
  C   C309      1.0  0.74179  0.09082  0.33764  1.0000
  C   C310      1.0  0.74786  0.10854  0.41879  1.0000
  C   C311      1.0  0.75037  0.14017  0.42170  1.0000
  C   C312      1.0  0.74366  0.15406  0.34702  1.0000
  N   N51       1.0  0.75459  0.15528  0.50116  1.0000
  C   C313      1.0  0.75579  0.14124  0.57851  1.0000
  C   C314      1.0  0.75389  0.10998  0.57678  1.0000
  N   N52       1.0  0.75004  0.09499  0.49687  1.0000
  C   C315      1.0  0.75932  0.15986  0.66055  1.0000
  H   H247      1.0  0.74061  0.16746  0.66233  1.0000
  H   H248      1.0  0.78330  0.18188  0.65744  1.0000
  C   C316      1.0  0.75229  0.09227  0.65988  1.0000
  H   H249      1.0  0.76192  0.07553  0.64937  1.0000
  C   C317      1.0  0.90753  0.15069  0.33750  1.0000
  C   C318      1.0  0.88984  0.13904  0.41870  1.0000
  C   C319      1.0  0.85820  0.10992  0.42159  1.0000
  C   C320      1.0  0.84432  0.08937  0.34679  1.0000
  N   N53       1.0  0.84310  0.09902  0.50107  1.0000
  C   C321      1.0  0.85715  0.11422  0.57843  1.0000
  C   C322      1.0  0.88841  0.14358  0.57670  1.0000
  N   N54       1.0  0.90339  0.15474  0.49679  1.0000
  C   C323      1.0  0.83854  0.09912  0.66048  1.0000
  H   H250      1.0  0.83095  0.07281  0.66220  1.0000
  H   H251      1.0  0.81653  0.10109  0.65745  1.0000
  C   C324      1.0  0.90614  0.15967  0.65981  1.0000
  H   H252      1.0  0.92289  0.18605  0.64935  1.0000
  C   C325      1.0  0.98091  0.73984  0.28769  1.0000
  C   C326      1.0  0.92922  0.68594  0.32567  1.0000
  C   C327      1.0  0.96112  0.70391  0.28282  1.0000
  C   C328      1.0  0.51722  0.75890  0.28762  1.0000
  C   C329      1.0  0.53698  0.79482  0.28283  1.0000
  C   C330      1.0  0.56882  0.81280  0.32595  1.0000
  N   N55       1.0  0.97273  0.68686  0.23586  1.0000
  N   N56       1.0  0.52540  0.81187  0.23575  1.0000
  H   H253      1.0  0.49061  0.69807  0.19304  1.0000
  H   H254      1.0  0.96303  0.66312  0.23958  1.0000
  H   H255      1.0  0.53503  0.83559  0.23971  1.0000
  H   H256      1.0  0.00749  0.80065  0.19299  1.0000
  C   C331      1.0  0.75859  0.74075  0.28807  1.0000
  C   C332      1.0  0.81250  0.74292  0.32549  1.0000
  C   C333      1.0  0.79451  0.75688  0.28294  1.0000
  C   C334      1.0  0.73953  0.75799  0.28801  1.0000
  C   C335      1.0  0.70361  0.74186  0.28291  1.0000
  C   C336      1.0  0.68562  0.75578  0.32566  1.0000
  N   N57       1.0  0.81153  0.78554  0.23596  1.0000
  N   N58       1.0  0.68659  0.71322  0.23585  1.0000
  H   H257      1.0  0.80028  0.79221  0.19325  1.0000
  H   H258      1.0  0.83528  0.79952  0.23935  1.0000
  H   H259      1.0  0.66285  0.69917  0.23951  1.0000
  H   H260      1.0  0.69783  0.70652  0.19323  1.0000
  C   C337      1.0  0.75766  0.51753  0.28785  1.0000
  C   C338      1.0  0.75543  0.56921  0.32564  1.0000
  C   C339      1.0  0.74150  0.53730  0.28292  1.0000
  C   C340      1.0  0.74041  0.98122  0.28805  1.0000
  C   C341      1.0  0.75655  0.96143  0.28299  1.0000
  C   C342      1.0  0.74259  0.92949  0.32560  1.0000
  N   N59       1.0  0.71284  0.52567  0.23594  1.0000
  N   N60       1.0  0.78521  0.97306  0.23603  1.0000
  H   H261      1.0  0.70617  0.00776  0.19321  1.0000
  H   H262      1.0  0.69882  0.53539  0.23951  1.0000
  H   H263      1.0  0.79920  0.96330  0.23948  1.0000
  H   H264      1.0  0.79185  0.49094  0.19321  1.0000
  C   C343      1.0  0.59445  0.72655  0.27822  1.0000
  C   C344      1.0  0.62517  0.72688  0.27174  1.0000
  H   H265      1.0  0.63038  0.71991  0.21260  1.0000
  H   H266      1.0  0.57850  0.71839  0.22562  1.0000
  C   C345      1.0  0.61561  0.75723  0.07959  1.0000
  C   C346      1.0  0.65336  0.77163  0.06890  1.0000
  H   H267      1.0  0.60437  0.73092  0.09447  1.0000
  H   H268      1.0  0.61071  0.76978  0.13390  1.0000
  H   H269      1.0  0.66446  0.76945  0.13056  1.0000
  H   H270      1.0  0.66454  0.79792  0.05321  1.0000
  H   H271      1.0  0.64872  0.72659  0.01178  1.0000
  C   C347      1.0  0.77186  0.86758  0.27825  1.0000
  C   C348      1.0  0.77151  0.89796  0.27175  1.0000
  H   H272      1.0  0.77845  0.91012  0.21257  1.0000
  H   H273      1.0  0.78001  0.85979  0.22563  1.0000
  C   C349      1.0  0.74116  0.85806  0.07964  1.0000
  C   C350      1.0  0.72675  0.88140  0.06891  1.0000
  H   H274      1.0  0.76747  0.87314  0.09454  1.0000
  H   H275      1.0  0.72861  0.84061  0.13394  1.0000
  H   H276      1.0  0.72891  0.89467  0.13058  1.0000
  H   H277      1.0  0.70047  0.86629  0.05317  1.0000
  H   H278      1.0  0.77180  0.92182  0.01189  1.0000
  C   C351      1.0  0.63082  0.90396  0.27839  1.0000
  C   C352      1.0  0.60043  0.87324  0.27191  1.0000
  H   H279      1.0  0.58826  0.86802  0.21275  1.0000
  H   H280      1.0  0.63862  0.91991  0.22577  1.0000
  C   C353      1.0  0.64034  0.88279  0.07980  1.0000
  C   C354      1.0  0.61700  0.84504  0.06908  1.0000
  H   H281      1.0  0.62526  0.89402  0.09471  1.0000
  H   H282      1.0  0.65780  0.88769  0.13409  1.0000
  H   H283      1.0  0.60373  0.83393  0.13075  1.0000
  H   H284      1.0  0.63211  0.83386  0.05333  1.0000
  H   H285      1.0  0.57658  0.84968  0.01208  1.0000
  C   C355      1.0  0.90366  0.77216  0.27817  1.0000
  C   C356      1.0  0.87294  0.77182  0.27166  1.0000
  H   H286      1.0  0.86772  0.77875  0.21248  1.0000
  H   H287      1.0  0.91960  0.78030  0.22554  1.0000
  C   C357      1.0  0.88247  0.74146  0.07956  1.0000
  C   C358      1.0  0.84472  0.72706  0.06885  1.0000
  H   H288      1.0  0.89371  0.76777  0.09444  1.0000
  H   H289      1.0  0.88737  0.72890  0.13386  1.0000
  H   H290      1.0  0.83361  0.72922  0.13051  1.0000
  H   H291      1.0  0.83355  0.70078  0.05311  1.0000
  H   H292      1.0  0.84936  0.77212  0.01182  1.0000
  C   C359      1.0  0.72623  0.63116  0.27829  1.0000
  C   C360      1.0  0.72655  0.60076  0.27179  1.0000
  H   H293      1.0  0.71962  0.58861  0.21260  1.0000
  H   H294      1.0  0.71810  0.63897  0.22565  1.0000
  C   C361      1.0  0.75693  0.64066  0.07969  1.0000
  C   C362      1.0  0.77134  0.61732  0.06897  1.0000
  H   H295      1.0  0.73062  0.62559  0.09460  1.0000
  H   H296      1.0  0.76949  0.65812  0.13398  1.0000
  H   H297      1.0  0.76918  0.60405  0.13063  1.0000
  H   H298      1.0  0.79762  0.63242  0.05321  1.0000
  H   H299      1.0  0.72627  0.57689  0.01198  1.0000
  C   C363      1.0  0.86726  0.59475  0.27828  1.0000
  C   C364      1.0  0.89766  0.62546  0.27180  1.0000
  H   H300      1.0  0.90984  0.63066  0.21266  1.0000
  H   H301      1.0  0.85948  0.57879  0.22571  1.0000
  C   C365      1.0  0.85776  0.61590  0.07964  1.0000
  C   C366      1.0  0.88111  0.65365  0.06895  1.0000
  H   H302      1.0  0.87283  0.60466  0.09452  1.0000
  H   H303      1.0  0.84030  0.61100  0.13394  1.0000
  H   H304      1.0  0.89439  0.66475  0.13061  1.0000
  H   H305      1.0  0.86600  0.66484  0.05328  1.0000
  H   H306      1.0  0.92152  0.64902  0.01183  1.0000
  C   C367      1.0  0.96234  0.75601  0.30755  1.0000
  C   C368      1.0  0.92903  0.73948  0.33549  1.0000
  C   C369      1.0  0.91471  0.70525  0.35157  1.0000
  H   H307      1.0  0.97377  0.78099  0.31481  1.0000
  H   H308      1.0  0.89040  0.69313  0.37151  1.0000
  C   C370      1.0  0.58337  0.79351  0.35162  1.0000
  C   C371      1.0  0.56909  0.75927  0.33554  1.0000
  C   C372      1.0  0.53580  0.74272  0.30738  1.0000
  H   H309      1.0  0.60766  0.80562  0.37174  1.0000
  H   H310      1.0  0.52437  0.71776  0.31483  1.0000
  C   C373      1.0  0.74240  0.70600  0.30797  1.0000
  C   C374      1.0  0.75894  0.68919  0.33556  1.0000
  C   C375      1.0  0.79320  0.70909  0.35130  1.0000
  H   H311      1.0  0.71742  0.69249  0.31524  1.0000
  H   H312      1.0  0.80533  0.69691  0.37128  1.0000
  C   C376      1.0  0.70491  0.78962  0.35133  1.0000
  C   C377      1.0  0.73916  0.80954  0.33552  1.0000
  C   C378      1.0  0.75571  0.79273  0.30796  1.0000
  H   H313      1.0  0.69280  0.80182  0.37125  1.0000
  H   H314      1.0  0.78069  0.80626  0.31526  1.0000
  C   C379      1.0  0.79242  0.53612  0.30751  1.0000
  C   C380      1.0  0.80917  0.56942  0.33557  1.0000
  C   C381      1.0  0.78924  0.58372  0.35164  1.0000
  H   H315      1.0  0.80596  0.52469  0.31505  1.0000
  H   H316      1.0  0.80143  0.60803  0.37161  1.0000
  C   C382      1.0  0.70877  0.91497  0.35150  1.0000
  C   C383      1.0  0.68887  0.92932  0.33566  1.0000
  C   C384      1.0  0.70567  0.96266  0.30800  1.0000
  H   H317      1.0  0.69660  0.89066  0.37144  1.0000
  H   H318      1.0  0.69215  0.97411  0.31520  1.0000
  C   C385      1.0  0.65037  0.74218  0.33751  1.0000
  C   C386      1.0  0.63873  0.74827  0.41865  1.0000
  C   C387      1.0  0.60961  0.75077  0.42155  1.0000
  C   C388      1.0  0.58902  0.74407  0.34680  1.0000
  N   N61       1.0  0.59870  0.75497  0.50103  1.0000
  C   C389      1.0  0.61392  0.75614  0.57839  1.0000
  C   C390      1.0  0.64329  0.75426  0.57666  1.0000
  N   N62       1.0  0.65444  0.75042  0.49674  1.0000
  C   C391      1.0  0.59882  0.75965  0.66044  1.0000
  H   H319      1.0  0.57251  0.74094  0.66217  1.0000
  H   H320      1.0  0.60080  0.78364  0.65739  1.0000
  C   C392      1.0  0.65937  0.75261  0.65976  1.0000
  H   H321      1.0  0.68575  0.76224  0.64929  1.0000
  C   C393      1.0  0.75619  0.90784  0.33751  1.0000
  C   C394      1.0  0.75017  0.89016  0.41871  1.0000
  C   C395      1.0  0.74770  0.85855  0.42165  1.0000
  C   C396      1.0  0.75443  0.84467  0.34696  1.0000
  N   N63       1.0  0.74350  0.84345  0.50111  1.0000
  C   C397      1.0  0.74230  0.85748  0.57846  1.0000
  C   C398      1.0  0.74417  0.88873  0.57671  1.0000
  N   N64       1.0  0.74799  0.90371  0.49679  1.0000
  C   C399      1.0  0.73877  0.83886  0.66050  1.0000
  H   H322      1.0  0.75748  0.83127  0.66227  1.0000
  H   H323      1.0  0.71478  0.81685  0.65740  1.0000
  C   C400      1.0  0.74579  0.90645  0.65981  1.0000
  H   H324      1.0  0.73616  0.92320  0.64932  1.0000
  C   C401      1.0  0.59051  0.84805  0.33773  1.0000
  C   C402      1.0  0.60823  0.85971  0.41888  1.0000
  C   C403      1.0  0.63985  0.88884  0.42180  1.0000
  C   C404      1.0  0.65373  0.90945  0.34711  1.0000
  N   N65       1.0  0.65495  0.89974  0.50126  1.0000
  C   C405      1.0  0.64092  0.88451  0.57862  1.0000
  C   C406      1.0  0.60967  0.85514  0.57688  1.0000
  N   N66       1.0  0.59469  0.84399  0.49697  1.0000
  C   C407      1.0  0.65954  0.89960  0.66066  1.0000
  H   H325      1.0  0.66713  0.92591  0.66243  1.0000
  H   H326      1.0  0.68156  0.89764  0.65755  1.0000
  C   C408      1.0  0.59195  0.83903  0.65998  1.0000
  H   H327      1.0  0.57521  0.81266  0.64950  1.0000
  C   C409      1.0  0.84775  0.75657  0.33748  1.0000
  C   C410      1.0  0.85939  0.75050  0.41864  1.0000
  C   C411      1.0  0.88853  0.74802  0.42157  1.0000
  C   C412      1.0  0.90915  0.75474  0.34689  1.0000
  N   N67       1.0  0.89942  0.74380  0.50103  1.0000
  C   C413      1.0  0.88419  0.74260  0.57838  1.0000
  C   C414      1.0  0.85481  0.74448  0.57664  1.0000
  N   N68       1.0  0.84367  0.74832  0.49672  1.0000
  C   C415      1.0  0.89926  0.73904  0.66041  1.0000
  H   H328      1.0  0.92558  0.75774  0.66219  1.0000
  H   H329      1.0  0.89727  0.71505  0.65730  1.0000
  C   C416      1.0  0.83872  0.74610  0.65974  1.0000
  H   H330      1.0  0.81234  0.73647  0.64925  1.0000
  C   C417      1.0  0.74179  0.59081  0.33764  1.0000
  C   C418      1.0  0.74787  0.60854  0.41879  1.0000
  C   C419      1.0  0.75038  0.64017  0.42170  1.0000
  C   C420      1.0  0.74366  0.65406  0.34702  1.0000
  N   N69       1.0  0.75459  0.65528  0.50116  1.0000
  C   C421      1.0  0.75579  0.64124  0.57851  1.0000
  C   C422      1.0  0.75389  0.60998  0.57678  1.0000
  N   N70       1.0  0.75004  0.59499  0.49687  1.0000
  C   C423      1.0  0.75932  0.65986  0.66055  1.0000
  H   H331      1.0  0.74060  0.66746  0.66233  1.0000
  H   H332      1.0  0.78330  0.68188  0.65744  1.0000
  C   C424      1.0  0.75229  0.59227  0.65988  1.0000
  H   H333      1.0  0.76192  0.57553  0.64937  1.0000
  C   C425      1.0  0.90753  0.65069  0.33750  1.0000
  C   C426      1.0  0.88984  0.63904  0.41870  1.0000
  C   C427      1.0  0.85820  0.60992  0.42159  1.0000
  C   C428      1.0  0.84432  0.58937  0.34679  1.0000
  N   N71       1.0  0.84310  0.59902  0.50107  1.0000
  C   C429      1.0  0.85715  0.61422  0.57843  1.0000
  C   C430      1.0  0.88841  0.64358  0.57670  1.0000
  N   N72       1.0  0.90339  0.65474  0.49679  1.0000
  C   C431      1.0  0.83855  0.59912  0.66048  1.0000
  H   H334      1.0  0.83095  0.57281  0.66220  1.0000
  H   H335      1.0  0.81653  0.60109  0.65745  1.0000
  C   C432      1.0  0.90614  0.65967  0.65981  1.0000
  H   H336      1.0  0.92289  0.68605  0.64935  1.0000
