data_image0
_chemical_formula_structural       NC3HC3H2C3H2CHNC6H4C6H4C9H4C9H4CNHCNHCNHCNHCNHCNHC2NCHC2NCHC2HC2NCHC2NCHNC3NCHC2NCHC2NCHC2NCHC2NCHC2NCHC6H5C24H15C6H5C24H15C24H15C24H15C24H15C24H15C24H15C24H15C24H15C24H15C2NCHC2NCHC2NCHC2NCHC2NCHC2NCHCNHCNHNCNHCNHCHCNHCNHCNHCNHCNHCNH
_chemical_formula_sum              "N36 C360 H216"
_cell_length_a       75.5106
_cell_length_b       75.5106
_cell_length_c       14.9378
_cell_angle_alpha    90
_cell_angle_beta     90
_cell_angle_gamma    120

_space_group_name_H-M_alt    "P 1"
_space_group_IT_number       1

loop_
  _space_group_symop_operation_xyz
  'x, y, z'

loop_
  _atom_site_type_symbol
  _atom_site_label
  _atom_site_symmetry_multiplicity
  _atom_site_fract_x
  _atom_site_fract_y
  _atom_site_fract_z
  _atom_site_occupancy
  N   N1        1.0  0.00941  0.80644  0.27141  1.0000
  C   C1        1.0  0.01978  0.80590  0.34504  1.0000
  C   C2        1.0  0.02068  0.20078  0.33782  1.0000
  C   C3        1.0  0.00844  0.18916  0.26484  1.0000
  H   H1        1.0  0.01465  0.18814  0.20572  1.0000
  C   C4        1.0  0.05404  0.20566  0.28295  1.0000
  C   C5        1.0  0.04259  0.21163  0.33765  1.0000
  C   C6        1.0  0.05374  0.22882  0.39404  1.0000
  H   H2        1.0  0.04688  0.19308  0.24259  1.0000
  H   H3        1.0  0.04628  0.23385  0.43488  1.0000
  C   C7        1.0  0.05335  0.81121  0.39961  1.0000
  C   C8        1.0  0.04168  0.81685  0.34461  1.0000
  C   C9        1.0  0.05261  0.83385  0.28705  1.0000
  H   H4        1.0  0.04635  0.79879  0.44096  1.0000
  H   H5        1.0  0.04501  0.83868  0.24596  1.0000
  C   C10       1.0  0.00760  0.79427  0.41814  1.0000
  H   H6        1.0  0.01386  0.79325  0.47711  1.0000
  N   N2        1.0  0.01038  0.20135  0.41165  1.0000
  C   C11       1.0  0.11961  0.26645  0.33763  1.0000
  C   C12       1.0  0.10853  0.24481  0.33973  1.0000
  C   C13       1.0  0.11977  0.23441  0.34183  1.0000
  C   C14       1.0  0.08664  0.23375  0.33950  1.0000
  C   C15       1.0  0.07556  0.21646  0.28389  1.0000
  C   C16       1.0  0.07527  0.23970  0.39462  1.0000
  H   H7        1.0  0.08310  0.21167  0.24223  1.0000
  H   H8        1.0  0.08259  0.25190  0.43714  1.0000
  H   H9        1.0  0.11200  0.21878  0.34638  1.0000
  H   H10       1.0  0.11173  0.27422  0.33621  1.0000
  C   C17       1.0  0.10761  0.85064  0.34004  1.0000
  C   C18       1.0  0.11930  0.84071  0.34002  1.0000
  C   C19       1.0  0.11824  0.87226  0.33919  1.0000
  C   C20       1.0  0.08572  0.83926  0.34094  1.0000
  C   C21       1.0  0.07488  0.82215  0.39775  1.0000
  C   C22       1.0  0.07412  0.84485  0.28547  1.0000
  H   H11       1.0  0.08260  0.81764  0.43980  1.0000
  H   H12       1.0  0.08124  0.85691  0.24209  1.0000
  H   H13       1.0  0.11182  0.82506  0.33723  1.0000
  H   H14       1.0  0.11008  0.87976  0.34187  1.0000
  C   C23       1.0  0.14141  0.24496  0.34158  1.0000
  C   C24       1.0  0.15181  0.26659  0.33927  1.0000
  C   C25       1.0  0.14126  0.27767  0.33745  1.0000
  C   C26       1.0  0.15217  0.29957  0.33586  1.0000
  C   C27       1.0  0.15722  0.33213  0.27631  1.0000
  C   C28       1.0  0.14642  0.31061  0.27760  1.0000
  C   C29       1.0  0.15244  0.23411  0.34341  1.0000
  C   C30       1.0  0.15757  0.20622  0.28967  1.0000
  C   C31       1.0  0.14661  0.21678  0.28849  1.0000
  H   H15       1.0  0.15265  0.19376  0.24877  1.0000
  H   H16       1.0  0.13449  0.21187  0.24554  1.0000
  H   H17       1.0  0.13446  0.30303  0.23414  1.0000
  H   H18       1.0  0.15236  0.33936  0.23316  1.0000
  C   C32       1.0  0.14097  0.85170  0.33970  1.0000
  C   C33       1.0  0.15094  0.87335  0.33923  1.0000
  C   C34       1.0  0.13983  0.88388  0.33849  1.0000
  C   C35       1.0  0.15229  0.84110  0.33936  1.0000
  C   C36       1.0  0.14666  0.82402  0.39564  1.0000
  C   C37       1.0  0.15739  0.81323  0.39412  1.0000
  C   C38       1.0  0.14991  0.90568  0.33739  1.0000
  C   C39       1.0  0.14452  0.91607  0.27380  1.0000
  C   C40       1.0  0.15413  0.93755  0.27345  1.0000
  H   H19       1.0  0.13364  0.90804  0.22623  1.0000
  H   H20       1.0  0.14962  0.94439  0.22671  1.0000
  H   H21       1.0  0.15226  0.80073  0.43479  1.0000
  H   H22       1.0  0.13465  0.81928  0.43914  1.0000
  C   C41       1.0  0.19448  0.39614  0.24705  1.0000
  N   N3        1.0  0.18478  0.37549  0.25592  1.0000
  H   H23       1.0  0.19386  0.40213  0.18664  1.0000
  C   C42       1.0  0.59559  0.78590  0.24713  1.0000
  N   N4        1.0  0.61624  0.79684  0.25602  1.0000
  H   H24       1.0  0.58960  0.77929  0.18673  1.0000
  C   C43       1.0  0.20609  0.79824  0.24786  1.0000
  N   N5        1.0  0.19537  0.80818  0.25743  1.0000
  H   H25       1.0  0.21284  0.79905  0.18762  1.0000
  C   C44       1.0  0.80282  0.59006  0.24717  1.0000
  N   N6        1.0  0.81253  0.61071  0.25607  1.0000
  H   H26       1.0  0.80345  0.58407  0.18678  1.0000
  C   C45       1.0  0.40084  0.19969  0.24903  1.0000
  N   N7        1.0  0.38019  0.18840  0.25746  1.0000
  H   H27       1.0  0.40679  0.20666  0.18919  1.0000
  C   C46       1.0  0.79142  0.18894  0.24704  1.0000
  N   N8        1.0  0.80238  0.17925  0.25597  1.0000
  H   H28       1.0  0.78481  0.18831  0.18664  1.0000
  C   C47       1.0  0.20667  0.17924  0.33701  1.0000
  C   C48       1.0  0.19511  0.17997  0.26402  1.0000
  N   N9        1.0  0.18536  0.19087  0.27161  1.0000
  C   C49       1.0  0.18575  0.20150  0.34598  1.0000
  H   H29       1.0  0.19420  0.17291  0.20455  1.0000
  C   C50       1.0  0.81296  0.01516  0.33776  1.0000
  C   C51       1.0  0.81235  0.00293  0.26477  1.0000
  N   N10       1.0  0.80134  0.98226  0.27184  1.0000
  C   C52       1.0  0.79049  0.97194  0.34569  1.0000
  H   H30       1.0  0.81958  0.00914  0.20565  1.0000
  C   C53       1.0  0.97657  0.78527  0.33784  1.0000
  C   C54       1.0  0.98875  0.79684  0.26466  1.0000
  H   H31       1.0  0.98250  0.79787  0.20565  1.0000
  C   C55       1.0  0.79094  0.80745  0.33775  1.0000
  C   C56       1.0  0.80258  0.80685  0.26480  1.0000
  N   N11       1.0  0.81224  0.79584  0.27189  1.0000
  C   C57       1.0  0.81169  0.78498  0.34573  1.0000
  H   H32       1.0  0.80361  0.81409  0.20569  1.0000
  C   C58       1.0  0.17912  0.97119  0.33813  1.0000
  C   C59       1.0  0.18474  0.98315  0.25932  1.0000
  N   N12       1.0  0.19529  0.00385  0.26614  1.0000
  C   C60       1.0  0.20067  0.01417  0.34533  1.0000
  H   H33       1.0  0.18189  0.97665  0.19717  1.0000
  N   N13       1.0  0.98777  0.17951  0.27192  1.0000
  C   C61       1.0  0.97746  0.18006  0.34577  1.0000
  C   C62       1.0  0.22324  0.58730  0.34050  1.0000
  C   C63       1.0  0.22614  0.59916  0.26279  1.0000
  N   N14       1.0  0.22669  0.61735  0.27036  1.0000
  C   C64       1.0  0.22366  0.62482  0.34833  1.0000
  H   H34       1.0  0.22967  0.59538  0.20239  1.0000
  C   C65       1.0  0.40466  0.62353  0.34048  1.0000
  C   C66       1.0  0.39279  0.61459  0.26277  1.0000
  N   N15       1.0  0.37461  0.59696  0.27032  1.0000
  C   C67       1.0  0.36717  0.58644  0.34825  1.0000
  H   H35       1.0  0.39655  0.62193  0.20243  1.0000
  C   C68       1.0  0.36789  0.76846  0.34047  1.0000
  C   C69       1.0  0.37685  0.76557  0.26276  1.0000
  N   N16       1.0  0.39448  0.76500  0.27030  1.0000
  C   C70       1.0  0.40497  0.76801  0.34828  1.0000
  H   H36       1.0  0.36954  0.76204  0.20235  1.0000
  C   C71       1.0  0.77421  0.39910  0.34049  1.0000
  C   C72       1.0  0.77129  0.38725  0.26272  1.0000
  N   N17       1.0  0.77068  0.36904  0.27021  1.0000
  C   C73       1.0  0.77372  0.36156  0.34813  1.0000
  H   H37       1.0  0.76773  0.39103  0.20238  1.0000
  C   C74       1.0  0.59255  0.36232  0.34045  1.0000
  C   C75       1.0  0.60440  0.37131  0.26273  1.0000
  N   N18       1.0  0.62260  0.38894  0.27032  1.0000
  C   C76       1.0  0.63009  0.39941  0.34834  1.0000
  H   H38       1.0  0.60060  0.36403  0.20227  1.0000
  C   C77       1.0  0.62890  0.21760  0.34038  1.0000
  C   C78       1.0  0.61992  0.22047  0.26264  1.0000
  N   N19       1.0  0.60230  0.22104  0.27019  1.0000
  C   C79       1.0  0.59182  0.21806  0.34817  1.0000
  H   H39       1.0  0.62722  0.22397  0.20221  1.0000
  C   C80       1.0  0.16915  0.31096  0.39271  1.0000
  C   C81       1.0  0.17985  0.33248  0.39174  1.0000
  C   C82       1.0  0.17409  0.34361  0.33386  1.0000
  C   C83       1.0  0.16966  0.24039  0.39961  1.0000
  C   C84       1.0  0.18052  0.22973  0.40117  1.0000
  C   C85       1.0  0.17472  0.21236  0.34636  1.0000
  H   H40       1.0  0.19308  0.23521  0.44176  1.0000
  H   H41       1.0  0.17436  0.25273  0.44110  1.0000
  H   H42       1.0  0.19222  0.33988  0.43314  1.0000
  H   H43       1.0  0.17378  0.30367  0.43661  1.0000
  H   H44       1.0  0.16746  0.27446  0.33605  1.0000
  C   C86       1.0  0.74680  0.88407  0.34125  1.0000
  C   C87       1.0  0.72516  0.87283  0.33915  1.0000
  C   C88       1.0  0.71408  0.85119  0.33749  1.0000
  C   C89       1.0  0.72530  0.84078  0.33772  1.0000
  C   C90       1.0  0.74695  0.85133  0.33971  1.0000
  C   C91       1.0  0.75735  0.87297  0.34156  1.0000
  C   C92       1.0  0.69218  0.84020  0.33592  1.0000
  C   C93       1.0  0.68078  0.84578  0.39275  1.0000
  C   C94       1.0  0.65926  0.83494  0.39184  1.0000
  C   C95       1.0  0.64813  0.81804  0.33398  1.0000
  C   C96       1.0  0.65961  0.81265  0.27645  1.0000
  C   C97       1.0  0.68114  0.82340  0.27772  1.0000
  C   C98       1.0  0.75767  0.90597  0.34284  1.0000
  C   C99       1.0  0.75142  0.91695  0.39892  1.0000
  C   C100      1.0  0.76212  0.93848  0.40045  1.0000
  C   C101      1.0  0.77952  0.95003  0.34575  1.0000
  C   C102      1.0  0.78561  0.93897  0.28906  1.0000
  C   C103      1.0  0.77500  0.91745  0.28793  1.0000
  C   C104      1.0  0.75800  0.84048  0.33951  1.0000
  C   C105      1.0  0.77529  0.84668  0.28389  1.0000
  C   C106      1.0  0.78607  0.83594  0.28291  1.0000
  C   C107      1.0  0.78009  0.81851  0.33761  1.0000
  C   C108      1.0  0.76292  0.81250  0.39402  1.0000
  C   C109      1.0  0.75204  0.82316  0.39462  1.0000
  H   H45       1.0  0.75666  0.94557  0.44104  1.0000
  H   H46       1.0  0.73907  0.90933  0.44043  1.0000
  H   H47       1.0  0.79809  0.94650  0.24821  1.0000
  H   H48       1.0  0.77991  0.91022  0.24505  1.0000
  H   H49       1.0  0.78007  0.85900  0.24217  1.0000
  H   H50       1.0  0.79864  0.84135  0.24250  1.0000
  H   H51       1.0  0.73985  0.81828  0.43713  1.0000
  H   H52       1.0  0.75787  0.80000  0.43484  1.0000
  H   H53       1.0  0.68871  0.81900  0.23428  1.0000
  H   H54       1.0  0.65239  0.80056  0.23332  1.0000
  H   H55       1.0  0.65185  0.83991  0.43318  1.0000
  H   H56       1.0  0.68807  0.85771  0.43661  1.0000
  H   H57       1.0  0.71730  0.88061  0.33591  1.0000
  H   H58       1.0  0.77298  0.88084  0.34600  1.0000
  H   H59       1.0  0.71753  0.82512  0.33642  1.0000
  C   C110      1.0  0.17427  0.81897  0.33620  1.0000
  C   C111      1.0  0.17981  0.83603  0.27961  1.0000
  C   C112      1.0  0.16916  0.84693  0.28150  1.0000
  C   C113      1.0  0.16922  0.94942  0.33777  1.0000
  C   C114      1.0  0.17437  0.93897  0.40216  1.0000
  C   C115      1.0  0.16507  0.91750  0.40137  1.0000
  H   H60       1.0  0.16916  0.91053  0.44934  1.0000
  H   H61       1.0  0.18531  0.94694  0.44953  1.0000
  H   H62       1.0  0.17360  0.85896  0.23834  1.0000
  H   H63       1.0  0.19189  0.84089  0.23642  1.0000
  H   H64       1.0  0.16659  0.88163  0.33928  1.0000
  C   C116      1.0  0.85585  0.74127  0.34135  1.0000
  C   C117      1.0  0.84544  0.71963  0.33920  1.0000
  C   C118      1.0  0.85600  0.70854  0.33753  1.0000
  C   C119      1.0  0.87764  0.71976  0.33786  1.0000
  C   C120      1.0  0.88872  0.74140  0.33996  1.0000
  C   C121      1.0  0.87749  0.75181  0.34176  1.0000
  C   C122      1.0  0.84509  0.68665  0.33593  1.0000
  C   C123      1.0  0.82811  0.67524  0.39275  1.0000
  C   C124      1.0  0.81744  0.65372  0.39187  1.0000
  C   C125      1.0  0.82321  0.64260  0.33402  1.0000
  C   C126      1.0  0.84008  0.65408  0.27649  1.0000
  C   C127      1.0  0.85086  0.67561  0.27773  1.0000
  C   C128      1.0  0.84483  0.75215  0.34292  1.0000
  C   C129      1.0  0.82760  0.74590  0.39900  1.0000
  C   C130      1.0  0.81677  0.75660  0.40047  1.0000
  C   C131      1.0  0.82263  0.77401  0.34580  1.0000
  C   C132      1.0  0.83978  0.78009  0.28914  1.0000
  C   C133      1.0  0.85070  0.76949  0.28804  1.0000
  C   C134      1.0  0.91062  0.75244  0.33985  1.0000
  C   C135      1.0  0.92171  0.76975  0.28433  1.0000
  C   C136      1.0  0.94323  0.78051  0.28340  1.0000
  C   C137      1.0  0.95466  0.77448  0.33793  1.0000
  C   C138      1.0  0.94350  0.75730  0.39426  1.0000
  C   C139      1.0  0.92197  0.74645  0.39491  1.0000
  H   H65       1.0  0.80422  0.75115  0.44108  1.0000
  H   H66       1.0  0.82286  0.73355  0.44047  1.0000
  H   H67       1.0  0.84474  0.79258  0.24832  1.0000
  H   H68       1.0  0.86283  0.77439  0.24516  1.0000
  H   H69       1.0  0.91419  0.77456  0.24271  1.0000
  H   H70       1.0  0.95041  0.79310  0.24308  1.0000
  H   H71       1.0  0.91464  0.73424  0.43733  1.0000
  H   H72       1.0  0.95094  0.75223  0.43499  1.0000
  H   H73       1.0  0.86284  0.68318  0.23435  1.0000
  H   H74       1.0  0.84496  0.64686  0.23340  1.0000
  H   H75       1.0  0.80506  0.64632  0.43320  1.0000
  H   H76       1.0  0.82347  0.68253  0.43663  1.0000
  H   H77       1.0  0.82980  0.71177  0.33587  1.0000
  H   H78       1.0  0.88526  0.76744  0.34630  1.0000
  H   H79       1.0  0.88551  0.71198  0.33656  1.0000
  C   C140      1.0  0.24892  0.10145  0.34073  1.0000
  C   C141      1.0  0.27055  0.11201  0.34110  1.0000
  C   C142      1.0  0.28219  0.13366  0.33885  1.0000
  C   C143      1.0  0.27147  0.14462  0.33848  1.0000
  C   C144      1.0  0.24985  0.13463  0.33903  1.0000
  C   C145      1.0  0.23889  0.11301  0.33997  1.0000
  C   C146      1.0  0.30411  0.14427  0.33624  1.0000
  C   C147      1.0  0.31552  0.13862  0.39258  1.0000
  C   C148      1.0  0.33708  0.14948  0.39162  1.0000
  C   C149      1.0  0.34824  0.16644  0.33401  1.0000
  C   C150      1.0  0.33672  0.17176  0.27634  1.0000
  C   C151      1.0  0.31519  0.16100  0.27769  1.0000
  C   C152      1.0  0.23721  0.07966  0.34099  1.0000
  C   C153      1.0  0.24038  0.06812  0.40698  1.0000
  C   C154      1.0  0.22816  0.04666  0.40947  1.0000
  C   C155      1.0  0.21257  0.03594  0.34530  1.0000
  C   C156      1.0  0.20971  0.04754  0.27829  1.0000
  C   C157      1.0  0.22163  0.06902  0.27686  1.0000
  C   C158      1.0  0.23926  0.14592  0.33785  1.0000
  C   C159      1.0  0.22213  0.14000  0.28154  1.0000
  C   C160      1.0  0.21148  0.15086  0.28090  1.0000
  C   C161      1.0  0.21749  0.16817  0.33638  1.0000
  C   C162      1.0  0.23458  0.17398  0.39309  1.0000
  C   C163      1.0  0.24530  0.16317  0.39353  1.0000
  H   H80       1.0  0.23116  0.03892  0.45779  1.0000
  H   H81       1.0  0.25139  0.07528  0.45502  1.0000
  H   H82       1.0  0.19862  0.04046  0.23054  1.0000
  H   H83       1.0  0.21899  0.07684  0.22756  1.0000
  H   H84       1.0  0.21728  0.12773  0.23947  1.0000
  H   H85       1.0  0.19895  0.14558  0.24032  1.0000
  H   H86       1.0  0.25738  0.16781  0.43655  1.0000
  H   H87       1.0  0.23961  0.18637  0.43452  1.0000
  H   H88       1.0  0.30765  0.16546  0.23437  1.0000
  H   H89       1.0  0.34391  0.18386  0.23330  1.0000
  H   H90       1.0  0.34448  0.14455  0.43316  1.0000
  H   H91       1.0  0.30823  0.12673  0.43663  1.0000
  H   H92       1.0  0.27793  0.10374  0.33914  1.0000
  H   H93       1.0  0.22324  0.10547  0.34274  1.0000
  H   H94       1.0  0.27960  0.16027  0.33731  1.0000
  C   C164      1.0  0.88959  0.13592  0.34140  1.0000
  C   C165      1.0  0.87837  0.14632  0.33938  1.0000
  C   C166      1.0  0.85672  0.13577  0.33765  1.0000
  C   C167      1.0  0.84630  0.11413  0.33786  1.0000
  C   C168      1.0  0.85686  0.10304  0.33982  1.0000
  C   C169      1.0  0.87850  0.11427  0.34164  1.0000
  C   C170      1.0  0.84574  0.14668  0.33604  1.0000
  C   C171      1.0  0.85131  0.16366  0.39287  1.0000
  C   C172      1.0  0.84047  0.17435  0.39189  1.0000
  C   C173      1.0  0.82358  0.16858  0.33399  1.0000
  C   C174      1.0  0.81820  0.15171  0.27644  1.0000
  C   C175      1.0  0.82895  0.14093  0.27777  1.0000
  C   C176      1.0  0.91150  0.14694  0.34296  1.0000
  C   C177      1.0  0.92248  0.16416  0.39906  1.0000
  C   C178      1.0  0.94401  0.17499  0.40052  1.0000
  C   C179      1.0  0.95555  0.16913  0.34582  1.0000
  C   C180      1.0  0.94449  0.15199  0.28914  1.0000
  C   C181      1.0  0.92296  0.14108  0.28800  1.0000
  C   C182      1.0  0.84600  0.08114  0.33958  1.0000
  C   C183      1.0  0.85220  0.07005  0.28390  1.0000
  C   C184      1.0  0.84145  0.04853  0.28290  1.0000
  C   C185      1.0  0.82403  0.03708  0.33763  1.0000
  C   C186      1.0  0.81802  0.04824  0.39407  1.0000
  C   C187      1.0  0.82868  0.06977  0.39472  1.0000
  H   H95       1.0  0.95111  0.18753  0.44116  1.0000
  H   H96       1.0  0.91487  0.16890  0.44056  1.0000
  H   H97       1.0  0.95200  0.14702  0.24828  1.0000
  H   H98       1.0  0.91572  0.12894  0.24513  1.0000
  H   H99       1.0  0.86452  0.07759  0.24221  1.0000
  H   H100      1.0  0.84686  0.04136  0.24250  1.0000
  H   H101      1.0  0.82381  0.07709  0.43725  1.0000
  H   H102      1.0  0.80553  0.04078  0.43495  1.0000
  H   H103      1.0  0.82455  0.12895  0.23435  1.0000
  H   H104      1.0  0.80611  0.14683  0.23332  1.0000
  H   H105      1.0  0.84544  0.18672  0.43328  1.0000
  H   H106      1.0  0.86324  0.16830  0.43677  1.0000
  H   H107      1.0  0.88615  0.16197  0.33608  1.0000
  H   H108      1.0  0.88636  0.10650  0.34609  1.0000
  H   H109      1.0  0.83065  0.10625  0.33652  1.0000
  C   C188      1.0  0.24949  0.52892  0.33661  1.0000
  C   C189      1.0  0.23905  0.50747  0.32584  1.0000
  C   C190      1.0  0.24977  0.49650  0.32257  1.0000
  C   C191      1.0  0.27145  0.50772  0.32716  1.0000
  C   C192      1.0  0.28221  0.52917  0.33796  1.0000
  C   C193      1.0  0.27102  0.53951  0.34258  1.0000
  C   C194      1.0  0.23899  0.47462  0.31951  1.0000
  C   C195      1.0  0.22212  0.46357  0.26167  1.0000
  C   C196      1.0  0.21129  0.44202  0.26087  1.0000
  C   C197      1.0  0.21675  0.43057  0.31827  1.0000
  C   C198      1.0  0.23356  0.44172  0.37650  1.0000
  C   C199      1.0  0.24448  0.46323  0.37690  1.0000
  C   C200      1.0  0.23912  0.54022  0.34284  1.0000
  C   C201      1.0  0.22909  0.54253  0.26775  1.0000
  C   C202      1.0  0.22292  0.55733  0.26786  1.0000
  C   C203      1.0  0.22642  0.57015  0.34300  1.0000
  C   C204      1.0  0.23531  0.56676  0.41992  1.0000
  C   C205      1.0  0.24174  0.55222  0.41960  1.0000
  C   C206      1.0  0.30384  0.54059  0.34584  1.0000
  C   C207      1.0  0.31285  0.55265  0.42284  1.0000
  C   C208      1.0  0.33390  0.56686  0.42549  1.0000
  C   C209      1.0  0.34667  0.56971  0.35092  1.0000
  C   C210      1.0  0.33761  0.55711  0.27496  1.0000
  C   C211      1.0  0.31655  0.54264  0.27259  1.0000
  H   H110      1.0  0.21647  0.55913  0.21086  1.0000
  H   H111      1.0  0.22754  0.53452  0.21018  1.0000
  H   H112      1.0  0.23869  0.57591  0.47519  1.0000
  H   H113      1.0  0.24939  0.55125  0.47435  1.0000
  H   H114      1.0  0.30396  0.55195  0.47602  1.0000
  H   H115      1.0  0.33939  0.57620  0.48025  1.0000
  H   H116      1.0  0.31035  0.53461  0.21476  1.0000
  H   H117      1.0  0.34617  0.55889  0.21897  1.0000
  H   H118      1.0  0.25626  0.47051  0.42150  1.0000
  H   H119      1.0  0.23822  0.43428  0.41941  1.0000
  H   H120      1.0  0.19898  0.43484  0.21904  1.0000
  H   H121      1.0  0.21760  0.47115  0.21887  1.0000
  H   H122      1.0  0.22339  0.49971  0.32473  1.0000
  H   H123      1.0  0.27874  0.55513  0.34924  1.0000
  H   H124      1.0  0.27956  0.50018  0.32437  1.0000
  C   C212      1.0  0.46282  0.70819  0.33654  1.0000
  C   C213      1.0  0.48427  0.71923  0.32575  1.0000
  C   C214      1.0  0.49522  0.74092  0.32245  1.0000
  C   C215      1.0  0.48397  0.75135  0.32710  1.0000
  C   C216      1.0  0.46252  0.74064  0.33790  1.0000
  C   C217      1.0  0.45220  0.71910  0.34250  1.0000
  C   C218      1.0  0.51710  0.75202  0.31935  1.0000
  C   C219      1.0  0.52814  0.74619  0.26155  1.0000
  C   C220      1.0  0.54969  0.75687  0.26082  1.0000
  C   C221      1.0  0.56115  0.77377  0.31828  1.0000
  C   C222      1.0  0.55001  0.77945  0.37646  1.0000
  C   C223      1.0  0.52849  0.76889  0.37678  1.0000
  C   C224      1.0  0.45156  0.68653  0.34285  1.0000
  C   C225      1.0  0.44932  0.67420  0.26781  1.0000
  C   C226      1.0  0.43459  0.65321  0.26794  1.0000
  C   C227      1.0  0.42177  0.64387  0.34305  1.0000
  C   C228      1.0  0.42509  0.65615  0.41993  1.0000
  C   C229      1.0  0.43957  0.67713  0.41959  1.0000
  C   C230      1.0  0.45105  0.75080  0.34582  1.0000
  C   C231      1.0  0.43898  0.74772  0.42283  1.0000
  C   C232      1.0  0.42471  0.75449  0.42552  1.0000
  C   C233      1.0  0.42177  0.76432  0.35090  1.0000
  C   C234      1.0  0.43437  0.76790  0.27491  1.0000
  C   C235      1.0  0.44893  0.76142  0.27256  1.0000
  H   H125      1.0  0.43282  0.64498  0.21093  1.0000
  H   H126      1.0  0.45733  0.68068  0.21025  1.0000
  H   H127      1.0  0.41593  0.65034  0.47515  1.0000
  H   H128      1.0  0.44050  0.68574  0.47430  1.0000
  H   H129      1.0  0.43974  0.73958  0.47607  1.0000
  H   H130      1.0  0.41537  0.75061  0.48029  1.0000
  H   H131      1.0  0.45692  0.76323  0.21465  1.0000
  H   H132      1.0  0.43252  0.77461  0.21886  1.0000
  H   H133      1.0  0.52122  0.77339  0.42137  1.0000
  H   H134      1.0  0.55746  0.79154  0.41941  1.0000
  H   H135      1.0  0.55686  0.75173  0.21902  1.0000
  H   H136      1.0  0.52056  0.73409  0.21874  1.0000
  H   H137      1.0  0.49205  0.71134  0.32466  1.0000
  H   H138      1.0  0.43659  0.71118  0.34922  1.0000
  H   H139      1.0  0.49149  0.76700  0.32434  1.0000
  C   C236      1.0  0.28329  0.74243  0.33671  1.0000
  C   C237      1.0  0.27226  0.75287  0.32590  1.0000
  C   C238      1.0  0.25056  0.74215  0.32271  1.0000
  C   C239      1.0  0.24012  0.72047  0.32755  1.0000
  C   C240      1.0  0.25081  0.70970  0.33826  1.0000
  C   C241      1.0  0.27235  0.72091  0.34271  1.0000
  C   C242      1.0  0.23946  0.75296  0.31930  1.0000
  C   C243      1.0  0.24534  0.76985  0.26153  1.0000
  C   C244      1.0  0.23467  0.78074  0.26056  1.0000
  C   C245      1.0  0.21774  0.77536  0.31779  1.0000
  C   C246      1.0  0.21200  0.75848  0.37581  1.0000
  C   C247      1.0  0.22253  0.74750  0.37633  1.0000
  C   C248      1.0  0.30496  0.75278  0.34298  1.0000
  C   C249      1.0  0.31731  0.76275  0.26782  1.0000
  C   C250      1.0  0.33826  0.76883  0.26783  1.0000
  C   C251      1.0  0.34758  0.76532  0.34298  1.0000
  C   C252      1.0  0.33529  0.75649  0.41996  1.0000
  C   C253      1.0  0.31434  0.75014  0.41972  1.0000
  C   C254      1.0  0.24066  0.68806  0.34615  1.0000
  C   C255      1.0  0.24376  0.67908  0.42313  1.0000
  C   C256      1.0  0.23709  0.65806  0.42569  1.0000
  C   C257      1.0  0.22731  0.64528  0.35100  1.0000
  C   C258      1.0  0.22375  0.65431  0.27496  1.0000
  C   C259      1.0  0.23012  0.67533  0.27276  1.0000
  H   H140      1.0  0.34648  0.77521  0.21072  1.0000
  H   H141      1.0  0.31085  0.76425  0.21014  1.0000
  H   H142      1.0  0.34106  0.75311  0.47524  1.0000
  H   H143      1.0  0.30572  0.74252  0.47450  1.0000
  H   H144      1.0  0.25185  0.68799  0.47649  1.0000
  H   H145      1.0  0.24094  0.65261  0.48057  1.0000
  H   H146      1.0  0.22836  0.68151  0.21474  1.0000
  H   H147      1.0  0.21710  0.64577  0.21882  1.0000
  H   H148      1.0  0.21798  0.73571  0.42093  1.0000
  H   H149      1.0  0.19990  0.75387  0.41868  1.0000
  H   H150      1.0  0.23989  0.79308  0.21883  1.0000
  H   H151      1.0  0.25746  0.77436  0.21890  1.0000
  H   H152      1.0  0.28017  0.76853  0.32467  1.0000
  H   H153      1.0  0.28025  0.71319  0.34937  1.0000
  H   H154      1.0  0.22447  0.71235  0.32474  1.0000
  C   C260      1.0  0.74778  0.45730  0.33662  1.0000
  C   C261      1.0  0.75818  0.47875  0.32583  1.0000
  C   C262      1.0  0.74742  0.48969  0.32256  1.0000
  C   C263      1.0  0.72574  0.47843  0.32726  1.0000
  C   C264      1.0  0.71501  0.45697  0.33802  1.0000
  C   C265      1.0  0.72625  0.44667  0.34260  1.0000
  C   C266      1.0  0.75819  0.51157  0.31939  1.0000
  C   C267      1.0  0.77507  0.52262  0.26160  1.0000
  C   C268      1.0  0.78592  0.54416  0.26082  1.0000
  C   C269      1.0  0.78049  0.55562  0.31830  1.0000
  C   C270      1.0  0.76367  0.54448  0.37648  1.0000
  C   C271      1.0  0.75272  0.52297  0.37680  1.0000
  C   C272      1.0  0.75819  0.44605  0.34296  1.0000
  C   C273      1.0  0.76829  0.44382  0.26795  1.0000
  C   C274      1.0  0.77452  0.42907  0.26803  1.0000
  C   C275      1.0  0.77102  0.41623  0.34311  1.0000
  C   C276      1.0  0.76210  0.41958  0.42004  1.0000
  C   C277      1.0  0.75560  0.43407  0.41970  1.0000
  C   C278      1.0  0.69338  0.44549  0.34600  1.0000
  C   C279      1.0  0.68439  0.43343  0.42299  1.0000
  C   C280      1.0  0.66337  0.41911  0.42555  1.0000
  C   C281      1.0  0.65058  0.41619  0.35102  1.0000
  C   C282      1.0  0.65960  0.42882  0.27508  1.0000
  C   C283      1.0  0.68064  0.44338  0.27275  1.0000
  H   H155      1.0  0.78096  0.42728  0.21098  1.0000
  H   H156      1.0  0.76979  0.45180  0.21030  1.0000
  H   H157      1.0  0.75872  0.41040  0.47521  1.0000
  H   H158      1.0  0.74792  0.43499  0.47440  1.0000
  H   H159      1.0  0.69331  0.43417  0.47620  1.0000
  H   H160      1.0  0.65790  0.40980  0.48041  1.0000
  H   H161      1.0  0.68681  0.45136  0.21481  1.0000
  H   H162      1.0  0.65105  0.42697  0.21902  1.0000
  H   H163      1.0  0.74095  0.51569  0.42142  1.0000
  H   H164      1.0  0.75903  0.55193  0.41945  1.0000
  H   H165      1.0  0.79826  0.55133  0.21907  1.0000
  H   H166      1.0  0.77959  0.51503  0.21880  1.0000
  H   H167      1.0  0.77384  0.48653  0.32471  1.0000
  H   H168      1.0  0.71856  0.43105  0.34934  1.0000
  H   H169      1.0  0.71761  0.48594  0.32445  1.0000
  C   C284      1.0  0.53387  0.27777  0.33632  1.0000
  C   C285      1.0  0.51240  0.26673  0.32595  1.0000
  C   C286      1.0  0.50141  0.24503  0.32315  1.0000
  C   C287      1.0  0.51267  0.23460  0.32765  1.0000
  C   C288      1.0  0.53414  0.24529  0.33785  1.0000
  C   C289      1.0  0.54447  0.26683  0.34209  1.0000
  C   C290      1.0  0.47950  0.23391  0.32061  1.0000
  C   C291      1.0  0.46833  0.23968  0.26324  1.0000
  C   C292      1.0  0.44677  0.22887  0.26266  1.0000
  C   C293      1.0  0.43537  0.21191  0.31995  1.0000
  C   C294      1.0  0.44664  0.20634  0.37790  1.0000
  C   C295      1.0  0.46817  0.21702  0.37803  1.0000
  C   C296      1.0  0.54522  0.29944  0.34266  1.0000
  C   C297      1.0  0.54762  0.31180  0.26752  1.0000
  C   C298      1.0  0.56253  0.33274  0.26762  1.0000
  C   C299      1.0  0.57533  0.34203  0.34286  1.0000
  C   C300      1.0  0.57184  0.32972  0.41980  1.0000
  C   C301      1.0  0.55719  0.30878  0.41951  1.0000
  C   C302      1.0  0.54563  0.23515  0.34584  1.0000
  C   C303      1.0  0.55773  0.23827  0.42277  1.0000
  C   C304      1.0  0.57204  0.23155  0.42543  1.0000
  C   C305      1.0  0.57502  0.22174  0.35080  1.0000
  C   C306      1.0  0.56241  0.21816  0.27482  1.0000
  C   C307      1.0  0.54782  0.22459  0.27250  1.0000
  H   H170      1.0  0.56440  0.34098  0.21055  1.0000
  H   H171      1.0  0.53966  0.30535  0.20980  1.0000
  H   H172      1.0  0.58100  0.33547  0.47507  1.0000
  H   H173      1.0  0.55620  0.30015  0.47421  1.0000
  H   H174      1.0  0.55693  0.24638  0.47606  1.0000
  H   H175      1.0  0.58138  0.23545  0.48021  1.0000
  H   H176      1.0  0.53981  0.22275  0.21460  1.0000
  H   H177      1.0  0.56427  0.21146  0.21874  1.0000
  H   H178      1.0  0.47551  0.21253  0.42234  1.0000
  H   H179      1.0  0.43928  0.19421  0.42074  1.0000
  H   H180      1.0  0.43953  0.23396  0.22096  1.0000
  H   H181      1.0  0.47583  0.25177  0.22038  1.0000
  H   H182      1.0  0.50464  0.27464  0.32508  1.0000
  H   H183      1.0  0.56009  0.27474  0.34853  1.0000
  H   H184      1.0  0.50514  0.21895  0.32512  1.0000
  C   C308      1.0  0.71351  0.24383  0.33633  1.0000
  C   C309      1.0  0.72456  0.23341  0.32552  1.0000
  C   C310      1.0  0.74625  0.24416  0.32234  1.0000
  C   C311      1.0  0.75668  0.26583  0.32697  1.0000
  C   C312      1.0  0.74597  0.27658  0.33767  1.0000
  C   C313      1.0  0.72444  0.26536  0.34227  1.0000
  C   C314      1.0  0.75737  0.23340  0.31932  1.0000
  C   C315      1.0  0.75158  0.21653  0.26153  1.0000
  C   C316      1.0  0.76232  0.20573  0.26071  1.0000
  C   C317      1.0  0.77923  0.21120  0.31818  1.0000
  C   C318      1.0  0.78487  0.22801  0.37638  1.0000
  C   C319      1.0  0.77425  0.23890  0.37675  1.0000
  C   C320      1.0  0.69185  0.23344  0.34263  1.0000
  C   C321      1.0  0.67950  0.22342  0.26756  1.0000
  C   C322      1.0  0.65852  0.21724  0.26772  1.0000
  C   C323      1.0  0.64921  0.22075  0.34288  1.0000
  C   C324      1.0  0.66150  0.22961  0.41984  1.0000
  C   C325      1.0  0.68248  0.23604  0.41945  1.0000
  C   C326      1.0  0.75615  0.29821  0.34564  1.0000
  C   C327      1.0  0.75305  0.30721  0.42251  1.0000
  C   C328      1.0  0.75991  0.32826  0.42520  1.0000
  C   C329      1.0  0.76990  0.34104  0.35080  1.0000
  C   C330      1.0  0.77348  0.33200  0.27492  1.0000
  C   C331      1.0  0.76690  0.31094  0.27256  1.0000
  H   H185      1.0  0.65028  0.21080  0.21072  1.0000
  H   H186      1.0  0.68595  0.22185  0.20997  1.0000
  H   H187      1.0  0.65575  0.23305  0.47499  1.0000
  H   H188      1.0  0.69110  0.24373  0.47411  1.0000
  H   H189      1.0  0.74486  0.29831  0.47570  1.0000
  H   H190      1.0  0.75608  0.33377  0.48001  1.0000
  H   H191      1.0  0.76875  0.30475  0.21473  1.0000
  H   H192      1.0  0.78031  0.34057  0.21902  1.0000
  H   H193      1.0  0.77874  0.25069  0.42130  1.0000
  H   H194      1.0  0.79697  0.23268  0.41931  1.0000
  H   H195      1.0  0.75719  0.19340  0.21895  1.0000
  H   H196      1.0  0.73948  0.21200  0.21869  1.0000
  H   H197      1.0  0.71667  0.21775  0.32452  1.0000
  H   H198      1.0  0.71652  0.27306  0.34896  1.0000
  H   H199      1.0  0.77233  0.27396  0.32418  1.0000
  C   C332      1.0  0.18487  0.36551  0.33178  1.0000
  C   C333      1.0  0.19601  0.37805  0.40491  1.0000
  N   N20       1.0  0.20574  0.39867  0.39593  1.0000
  C   C334      1.0  0.20571  0.40867  0.32004  1.0000
  H   H200      1.0  0.19664  0.37209  0.46539  1.0000
  C   C335      1.0  0.62623  0.80692  0.33188  1.0000
  C   C336      1.0  0.61368  0.80552  0.40499  1.0000
  N   N21       1.0  0.59305  0.79464  0.39598  1.0000
  C   C337      1.0  0.58306  0.78461  0.32009  1.0000
  H   H201      1.0  0.61963  0.81211  0.46547  1.0000
  C   C338      1.0  0.18517  0.80794  0.33317  1.0000
  C   C339      1.0  0.18620  0.79634  0.40530  1.0000
  N   N22       1.0  0.19688  0.78639  0.39563  1.0000
  C   C340      1.0  0.20703  0.78657  0.31991  1.0000
  H   H202      1.0  0.17952  0.79554  0.46571  1.0000
  C   C341      1.0  0.81243  0.62070  0.33192  1.0000
  C   C342      1.0  0.80127  0.60815  0.40501  1.0000
  N   N23       1.0  0.79153  0.58752  0.39599  1.0000
  C   C343      1.0  0.79156  0.57753  0.32012  1.0000
  H   H203      1.0  0.80063  0.61410  0.46548  1.0000
  C   C344      1.0  0.37018  0.17779  0.33236  1.0000
  C   C345      1.0  0.38277  0.17904  0.40503  1.0000
  N   N24       1.0  0.40341  0.19026  0.39648  1.0000
  C   C346      1.0  0.41342  0.20081  0.32152  1.0000
  H   H204      1.0  0.37684  0.17209  0.46493  1.0000
  C   C347      1.0  0.81246  0.17936  0.33185  1.0000
  C   C348      1.0  0.81104  0.19049  0.40494  1.0000
  N   N25       1.0  0.80014  0.20022  0.39590  1.0000
  C   C349      1.0  0.79011  0.20017  0.32000  1.0000
  H   H205      1.0  0.81762  0.19113  0.46543  1.0000
  C   C350      1.0  0.19738  0.20085  0.41887  1.0000
  N   N26       1.0  0.20711  0.18991  0.41137  1.0000
  H   H206      1.0  0.19828  0.20795  0.47826  1.0000
  C   C351      1.0  0.79106  0.98418  0.41862  1.0000
  N   N27       1.0  0.80210  0.00486  0.41159  1.0000
  H   H207      1.0  0.78383  0.97795  0.47772  1.0000
  N   N28       1.0  0.98691  0.78468  0.41147  1.0000
  C   C352      1.0  0.80001  0.78554  0.41862  1.0000
  N   N29       1.0  0.79037  0.79657  0.41157  1.0000
  H   H208      1.0  0.79899  0.77830  0.47771  1.0000
  C   C353      1.0  0.19456  0.00219  0.42412  1.0000
  N   N30       1.0  0.18434  0.98150  0.41733  1.0000
  H   H209      1.0  0.19773  0.00870  0.48630  1.0000
  C   C354      1.0  0.98970  0.19171  0.41869  1.0000
  H   H210      1.0  0.98348  0.19273  0.47779  1.0000
  C   C355      1.0  0.21955  0.61237  0.42499  1.0000
  N   N31       1.0  0.21998  0.59468  0.41819  1.0000
  H   H211      1.0  0.21725  0.61678  0.48650  1.0000
  C   C356      1.0  0.37962  0.59475  0.42490  1.0000
  N   N32       1.0  0.39730  0.61286  0.41814  1.0000
  H   H212      1.0  0.37520  0.58803  0.48639  1.0000
  C   C357      1.0  0.39665  0.77212  0.42495  1.0000
  N   N33       1.0  0.37854  0.77171  0.41815  1.0000
  H   H213      1.0  0.40335  0.77441  0.48647  1.0000
  C   C358      1.0  0.77788  0.37400  0.42483  1.0000
  N   N34       1.0  0.77749  0.39171  0.41813  1.0000
  H   H214      1.0  0.78016  0.36956  0.48631  1.0000
  C   C359      1.0  0.61766  0.39105  0.42502  1.0000
  N   N35       1.0  0.59996  0.37295  0.41818  1.0000
  H   H215      1.0  0.62209  0.39774  0.48656  1.0000
  C   C360      1.0  0.60016  0.21398  0.42488  1.0000
  N   N36       1.0  0.61826  0.21438  0.41809  1.0000
  H   H216      1.0  0.59347  0.21171  0.48641  1.0000
