data_image0
_chemical_formula_structural       NCHNCHNCHNCHC2NC2OH3C2NC2OH3C2NC2OH3C2NC2OH3C2NC2OH3C2NC2OH3C2NC2OH3C2NC2OH3NCHNCHNCHNCHC2NC2OH3C2NC2OH3C2NC2OH3C2NC2OH3NCHNCHNCHNCHC2NC2OH3C2NC2OH3NCHNCHNCHNCHC2NC2OH3C2NC2OH3C2NC2OH3C2NC2OH3C2NC2OH3C2NC2OH3C2NC2OH3C2NC2OH3NCHNCHNCHNCHCNCNCNCNCNCNCNCNCNCNCNCNCNCNCNCNCNCNCNCNCNCNCNCNCNCNCNCNCNCNCNCNCNCNCNCNCNCNCNCNCNCNCNCNCNCNCNCNCNCNCNCNCNCNCNCNCNCNCNCNCNCNCNCNCNCNCNCNCNCNCNCNCNCNCNCNCNCNCNCNCNCNCNCNC2NC2OH3C2NC2OH3C2NC2OH3C2NC2OH3NCHNCHNCHNCHNCHNCHNCHNCHC2NC2OH3C2NC2OH3C2NC2OH3C2NC2OH3NCHNCHNCHNCHC2NC2OH3C2NC2OH3C2NC2OH3C2NC2OH3NCHNCHC2NC2OH3C2NC2OH3C2NC2OH3C2NC2OH3NCHNCHNCHNCHNCHNCHNCHNCHC2NC2OH3C2NC2OH3C2NC2OH3C2NC2OH3
_chemical_formula_sum              "N168 C294 H168 O42"
_cell_length_a       51.1478
_cell_length_b       51.1478
_cell_length_c       14.8177
_cell_angle_alpha    90
_cell_angle_beta     90
_cell_angle_gamma    90

_space_group_name_H-M_alt    "P 1"
_space_group_IT_number       1

loop_
  _space_group_symop_operation_xyz
  'x, y, z'

loop_
  _atom_site_type_symbol
  _atom_site_label
  _atom_site_symmetry_multiplicity
  _atom_site_fract_x
  _atom_site_fract_y
  _atom_site_fract_z
  _atom_site_occupancy
  N   N1        1.0  0.11783  0.14421  0.35654  1.0000
  C   C1        1.0  0.13393  0.16507  0.35950  1.0000
  H   H1        1.0  0.12667  0.18321  0.34480  1.0000
  N   N2        1.0  0.89480  0.86752  0.35661  1.0000
  C   C2        1.0  0.87862  0.84673  0.35954  1.0000
  H   H2        1.0  0.88581  0.82857  0.34463  1.0000
  N   N3        1.0  0.86807  0.11728  0.35647  1.0000
  C   C3        1.0  0.84724  0.13340  0.35921  1.0000
  H   H3        1.0  0.82909  0.12616  0.34446  1.0000
  N   N4        1.0  0.14473  0.89425  0.35674  1.0000
  C   C4        1.0  0.16555  0.87811  0.35978  1.0000
  H   H4        1.0  0.18370  0.88532  0.34493  1.0000
  C   C5        1.0  0.09652  0.97580  0.30190  1.0000
  C   C6        1.0  0.10000  0.02983  0.30987  1.0000
  N   N5        1.0  0.08603  0.01757  0.24476  1.0000
  C   C7        1.0  0.08410  0.99141  0.23513  1.0000
  C   C8        1.0  0.06782  0.98185  0.15882  1.0000
  O   O1        1.0  0.08057  0.96170  0.10822  1.0000
  H   H5        1.0  0.06267  0.99787  0.11307  1.0000
  H   H6        1.0  0.04946  0.97410  0.18489  1.0000
  H   H7        1.0  0.09601  0.96936  0.07848  1.0000
  C   C9        1.0  0.91628  0.03583  0.30155  1.0000
  C   C10       1.0  0.91299  0.98182  0.30993  1.0000
  N   N6        1.0  0.92689  0.99406  0.24461  1.0000
  C   C11       1.0  0.92873  0.02023  0.23487  1.0000
  C   C12       1.0  0.94492  0.02984  0.15840  1.0000
  O   O2        1.0  0.93206  0.04993  0.10788  1.0000
  H   H8        1.0  0.95009  0.01383  0.11264  1.0000
  H   H9        1.0  0.96327  0.03765  0.18427  1.0000
  H   H10       1.0  0.91662  0.04221  0.07830  1.0000
  C   C13       1.0  0.03643  0.09588  0.30178  1.0000
  C   C14       1.0  0.98240  0.09931  0.30999  1.0000
  N   N7        1.0  0.99465  0.08535  0.24483  1.0000
  C   C15       1.0  0.02081  0.08344  0.23510  1.0000
  C   C16       1.0  0.03037  0.06718  0.15874  1.0000
  O   O3        1.0  0.05047  0.07997  0.10803  1.0000
  H   H11       1.0  0.01434  0.06200  0.11307  1.0000
  H   H12       1.0  0.03816  0.04884  0.18477  1.0000
  H   H13       1.0  0.04276  0.09539  0.07834  1.0000
  C   C17       1.0  0.97638  0.91565  0.30142  1.0000
  C   C18       1.0  0.03039  0.91234  0.30986  1.0000
  N   N8        1.0  0.01816  0.92627  0.24460  1.0000
  C   C19       1.0  0.99199  0.92813  0.23481  1.0000
  C   C20       1.0  0.98242  0.94436  0.15840  1.0000
  O   O4        1.0  0.96231  0.93155  0.10778  1.0000
  H   H14       1.0  0.99844  0.94953  0.11269  1.0000
  H   H15       1.0  0.97462  0.96271  0.18437  1.0000
  H   H16       1.0  0.97002  0.91612  0.07813  1.0000
  C   C21       1.0  0.16577  0.30344  0.33801  1.0000
  C   C22       1.0  0.18178  0.25130  0.35975  1.0000
  N   N9        1.0  0.19605  0.26861  0.31133  1.0000
  C   C23       1.0  0.18937  0.29401  0.29768  1.0000
  C   C24       1.0  0.20714  0.30929  0.23812  1.0000
  O   O5        1.0  0.19333  0.32264  0.16779  1.0000
  H   H17       1.0  0.22200  0.29668  0.20746  1.0000
  H   H18       1.0  0.21766  0.32375  0.27801  1.0000
  H   H19       1.0  0.18565  0.30944  0.12723  1.0000
  C   C25       1.0  0.84698  0.70864  0.33708  1.0000
  C   C26       1.0  0.83073  0.76067  0.35967  1.0000
  N   N10       1.0  0.81660  0.74341  0.31062  1.0000
  C   C27       1.0  0.82341  0.71805  0.29656  1.0000
  C   C28       1.0  0.80579  0.70278  0.23649  1.0000
  O   O6        1.0  0.81975  0.68958  0.16618  1.0000
  H   H20       1.0  0.79091  0.71536  0.20579  1.0000
  H   H21       1.0  0.79527  0.68822  0.27597  1.0000
  H   H22       1.0  0.82742  0.70286  0.12594  1.0000
  C   C29       1.0  0.70903  0.16508  0.33621  1.0000
  C   C30       1.0  0.76109  0.18123  0.35848  1.0000
  N   N11       1.0  0.74382  0.19542  0.30966  1.0000
  C   C31       1.0  0.71845  0.18866  0.29576  1.0000
  C   C32       1.0  0.70317  0.20633  0.23583  1.0000
  O   O7        1.0  0.68992  0.19242  0.16551  1.0000
  H   H23       1.0  0.71578  0.22120  0.20513  1.0000
  H   H24       1.0  0.68866  0.21686  0.27543  1.0000
  H   H25       1.0  0.70318  0.18474  0.12518  1.0000
  C   C33       1.0  0.30381  0.84630  0.33885  1.0000
  C   C34       1.0  0.25169  0.83021  0.36067  1.0000
  N   N12       1.0  0.26900  0.81598  0.31214  1.0000
  C   C35       1.0  0.29439  0.82271  0.29842  1.0000
  C   C36       1.0  0.30969  0.80498  0.23878  1.0000
  O   O8        1.0  0.32302  0.81883  0.16850  1.0000
  H   H26       1.0  0.29710  0.79011  0.20806  1.0000
  H   H27       1.0  0.32416  0.79446  0.27861  1.0000
  H   H28       1.0  0.30981  0.82651  0.12798  1.0000
  N   N13       1.0  0.85809  0.28445  0.33262  1.0000
  C   C37       1.0  0.85202  0.25860  0.32848  1.0000
  H   H29       1.0  0.86442  0.24613  0.29560  1.0000
  N   N14       1.0  0.15473  0.72695  0.33487  1.0000
  C   C38       1.0  0.16079  0.75280  0.33054  1.0000
  H   H30       1.0  0.14850  0.76520  0.29692  1.0000
  N   N15       1.0  0.28494  0.15424  0.33330  1.0000
  C   C39       1.0  0.25910  0.16035  0.32912  1.0000
  H   H31       1.0  0.24663  0.14799  0.29606  1.0000
  N   N16       1.0  0.72744  0.85760  0.33420  1.0000
  C   C40       1.0  0.75330  0.85157  0.32995  1.0000
  H   H32       1.0  0.76570  0.86390  0.29646  1.0000
  C   C41       1.0  0.37894  0.10999  0.33965  1.0000
  C   C42       1.0  0.39772  0.05717  0.34192  1.0000
  N   N17       1.0  0.41325  0.07834  0.32672  1.0000
  C   C43       1.0  0.40580  0.10393  0.32410  1.0000
  C   C44       1.0  0.42689  0.12300  0.30364  1.0000
  O   O9        1.0  0.42258  0.13634  0.21995  1.0000
  H   H33       1.0  0.44602  0.11340  0.30073  1.0000
  H   H34       1.0  0.42800  0.13735  0.35795  1.0000
  H   H35       1.0  0.42369  0.12347  0.17060  1.0000
  C   C45       1.0  0.63305  0.90140  0.34192  1.0000
  C   C46       1.0  0.61399  0.95410  0.34421  1.0000
  N   N18       1.0  0.59848  0.93285  0.32999  1.0000
  C   C47       1.0  0.60610  0.90730  0.32747  1.0000
  C   C48       1.0  0.58507  0.88806  0.30824  1.0000
  O   O10       1.0  0.58913  0.87466  0.22451  1.0000
  H   H36       1.0  0.56587  0.89753  0.30611  1.0000
  H   H37       1.0  0.58429  0.87375  0.36278  1.0000
  H   H38       1.0  0.58776  0.88747  0.17506  1.0000
  C   C49       1.0  0.90221  0.37852  0.33913  1.0000
  C   C50       1.0  0.95501  0.39735  0.34156  1.0000
  N   N19       1.0  0.93383  0.41288  0.32643  1.0000
  C   C51       1.0  0.90824  0.40540  0.32376  1.0000
  C   C52       1.0  0.88916  0.42648  0.30341  1.0000
  O   O11       1.0  0.87584  0.42220  0.21965  1.0000
  H   H39       1.0  0.89874  0.44562  0.30066  1.0000
  H   H40       1.0  0.87479  0.42753  0.35770  1.0000
  H   H41       1.0  0.88872  0.42336  0.17035  1.0000
  C   C53       1.0  0.11080  0.63264  0.34240  1.0000
  C   C54       1.0  0.05808  0.61362  0.34460  1.0000
  N   N20       1.0  0.07931  0.59810  0.33029  1.0000
  C   C55       1.0  0.10488  0.60570  0.32780  1.0000
  C   C56       1.0  0.12409  0.58466  0.30846  1.0000
  O   O12       1.0  0.13751  0.58875  0.22477  1.0000
  H   H42       1.0  0.11460  0.56546  0.30621  1.0000
  H   H43       1.0  0.13839  0.58383  0.36301  1.0000
  H   H44       1.0  0.12470  0.58742  0.17530  1.0000
  N   N21       1.0  0.64897  0.08382  0.34591  1.0000
  C   C57       1.0  0.64107  0.05827  0.34370  1.0000
  H   H45       1.0  0.65462  0.04382  0.33438  1.0000
  N   N22       1.0  0.36395  0.92746  0.34688  1.0000
  C   C58       1.0  0.37184  0.95300  0.34424  1.0000
  H   H46       1.0  0.35829  0.96740  0.33418  1.0000
  N   N23       1.0  0.08469  0.36363  0.34635  1.0000
  C   C59       1.0  0.05916  0.37152  0.34372  1.0000
  H   H47       1.0  0.04475  0.35798  0.33366  1.0000
  N   N24       1.0  0.92833  0.64864  0.34648  1.0000
  C   C60       1.0  0.95388  0.64074  0.34423  1.0000
  H   H48       1.0  0.96832  0.65430  0.33493  1.0000
  C   C61       1.0  0.47867  0.00885  0.34233  1.0000
  C   C62       1.0  0.53394  0.00422  0.34447  1.0000
  N   N25       1.0  0.52151  0.02758  0.33600  1.0000
  C   C63       1.0  0.49512  0.03127  0.33413  1.0000
  C   C64       1.0  0.48623  0.05868  0.32151  1.0000
  O   O13       1.0  0.47204  0.06213  0.23899  1.0000
  H   H49       1.0  0.50279  0.07228  0.32187  1.0000
  H   H50       1.0  0.47371  0.06423  0.37794  1.0000
  H   H51       1.0  0.48411  0.05910  0.18821  1.0000
  C   C65       1.0  0.00329  0.47833  0.34223  1.0000
  C   C66       1.0  0.00792  0.53360  0.34455  1.0000
  N   N26       1.0  0.98456  0.52118  0.33606  1.0000
  C   C67       1.0  0.98087  0.49479  0.33409  1.0000
  C   C68       1.0  0.95346  0.48590  0.32153  1.0000
  O   O14       1.0  0.95000  0.47173  0.23899  1.0000
  H   H52       1.0  0.93986  0.50245  0.32198  1.0000
  H   H53       1.0  0.94794  0.47336  0.37795  1.0000
  H   H54       1.0  0.95301  0.48380  0.18823  1.0000
  N   N27       1.0  0.20747  0.40723  0.33452  1.0000
  C   C69       1.0  0.23134  0.41885  0.32716  1.0000
  H   H55       1.0  0.23317  0.43519  0.28806  1.0000
  N   N28       1.0  0.80558  0.60462  0.33346  1.0000
  C   C70       1.0  0.78177  0.59285  0.32640  1.0000
  H   H56       1.0  0.78001  0.57648  0.28743  1.0000
  N   N29       1.0  0.60512  0.20666  0.33278  1.0000
  C   C71       1.0  0.59345  0.23051  0.32560  1.0000
  H   H57       1.0  0.57707  0.23231  0.28673  1.0000
  N   N30       1.0  0.40773  0.80476  0.33507  1.0000
  C   C72       1.0  0.41945  0.78093  0.32788  1.0000
  H   H58       1.0  0.43576  0.77913  0.28865  1.0000
  C   C73       1.0  0.80479  0.38323  0.31558  1.0000
  C   C74       1.0  0.75426  0.40509  0.32809  1.0000
  N   N31       1.0  0.75883  0.38228  0.28437  1.0000
  C   C75       1.0  0.78268  0.37085  0.27479  1.0000
  C   C76       1.0  0.78345  0.34677  0.21838  1.0000
  O   O15       1.0  0.80301  0.34810  0.14936  1.0000
  H   H59       1.0  0.76445  0.34308  0.18664  1.0000
  H   H60       1.0  0.78755  0.32987  0.26070  1.0000
  H   H61       1.0  0.79805  0.36199  0.10656  1.0000
  C   C77       1.0  0.20821  0.62833  0.31879  1.0000
  C   C78       1.0  0.25871  0.60638  0.33056  1.0000
  N   N32       1.0  0.25415  0.62930  0.28751  1.0000
  C   C79       1.0  0.23032  0.64078  0.27824  1.0000
  C   C80       1.0  0.22959  0.66500  0.22257  1.0000
  O   O16       1.0  0.21002  0.66389  0.15353  1.0000
  H   H62       1.0  0.24860  0.66873  0.19091  1.0000
  H   H63       1.0  0.22554  0.68180  0.26543  1.0000
  H   H64       1.0  0.21494  0.65010  0.11031  1.0000
  C   C81       1.0  0.38377  0.20742  0.31643  1.0000
  C   C82       1.0  0.40575  0.25791  0.32857  1.0000
  N   N33       1.0  0.38288  0.25337  0.28518  1.0000
  C   C83       1.0  0.37139  0.22955  0.27577  1.0000
  C   C84       1.0  0.34725  0.22884  0.21968  1.0000
  O   O17       1.0  0.34845  0.20928  0.15063  1.0000
  H   H65       1.0  0.34357  0.24785  0.18798  1.0000
  H   H66       1.0  0.33038  0.22479  0.26222  1.0000
  H   H67       1.0  0.36230  0.21420  0.10766  1.0000
  C   C85       1.0  0.62885  0.80400  0.31803  1.0000
  C   C86       1.0  0.60704  0.75345  0.33008  1.0000
  N   N34       1.0  0.62989  0.75807  0.28668  1.0000
  C   C87       1.0  0.64130  0.78193  0.27730  1.0000
  C   C88       1.0  0.66546  0.78272  0.22132  1.0000
  O   O18       1.0  0.66423  0.80232  0.15237  1.0000
  H   H68       1.0  0.66920  0.76374  0.18954  1.0000
  H   H69       1.0  0.68230  0.78681  0.26397  1.0000
  H   H70       1.0  0.65040  0.79738  0.10931  1.0000
  C   C89       1.0  0.31284  0.47832  0.32720  1.0000
  C   C90       1.0  0.31686  0.53353  0.33194  1.0000
  N   N35       1.0  0.29663  0.52078  0.29248  1.0000
  C   C91       1.0  0.29351  0.49456  0.28616  1.0000
  C   C92       1.0  0.26975  0.48597  0.23647  1.0000
  O   O19       1.0  0.27542  0.46692  0.16838  1.0000
  H   H71       1.0  0.25979  0.50255  0.20465  1.0000
  H   H72       1.0  0.25589  0.47766  0.28432  1.0000
  H   H73       1.0  0.28630  0.47529  0.12171  1.0000
  C   C93       1.0  0.70029  0.53319  0.32626  1.0000
  C   C94       1.0  0.69620  0.47797  0.33062  1.0000
  N   N36       1.0  0.71647  0.49073  0.29148  1.0000
  C   C95       1.0  0.71964  0.51695  0.28540  1.0000
  C   C96       1.0  0.74345  0.52554  0.23602  1.0000
  O   O20       1.0  0.73786  0.54457  0.16780  1.0000
  H   H74       1.0  0.75346  0.50895  0.20436  1.0000
  H   H75       1.0  0.75726  0.53386  0.28402  1.0000
  H   H76       1.0  0.72703  0.53619  0.12101  1.0000
  C   C97       1.0  0.53388  0.31198  0.32600  1.0000
  C   C98       1.0  0.47867  0.31600  0.33064  1.0000
  N   N37       1.0  0.49142  0.29577  0.29120  1.0000
  C   C99       1.0  0.51765  0.29265  0.28495  1.0000
  C   C100      1.0  0.52625  0.26890  0.23524  1.0000
  O   O21       1.0  0.54528  0.27458  0.16710  1.0000
  H   H77       1.0  0.50967  0.25892  0.20345  1.0000
  H   H78       1.0  0.53458  0.25505  0.28306  1.0000
  H   H79       1.0  0.53689  0.28545  0.12046  1.0000
  C   C101      1.0  0.47901  0.69944  0.32759  1.0000
  C   C102      1.0  0.53422  0.69534  0.33201  1.0000
  N   N38       1.0  0.52148  0.71562  0.29286  1.0000
  C   C103      1.0  0.49526  0.71879  0.28673  1.0000
  C   C104      1.0  0.48667  0.74262  0.23741  1.0000
  O   O22       1.0  0.46763  0.73705  0.16923  1.0000
  H   H80       1.0  0.50327  0.75261  0.20573  1.0000
  H   H81       1.0  0.47838  0.75642  0.28546  1.0000
  H   H82       1.0  0.47599  0.72623  0.12239  1.0000
  N   N39       1.0  0.37109  0.39417  0.33883  1.0000
  C   C105      1.0  0.39194  0.37747  0.33455  1.0000
  H   H83       1.0  0.41004  0.38465  0.31898  1.0000
  N   N40       1.0  0.64192  0.61724  0.33887  1.0000
  C   C106      1.0  0.62103  0.63390  0.33496  1.0000
  H   H84       1.0  0.60293  0.62670  0.31948  1.0000
  N   N41       1.0  0.61800  0.37032  0.33787  1.0000
  C   C107      1.0  0.63468  0.39119  0.33377  1.0000
  H   H85       1.0  0.62749  0.40930  0.31836  1.0000
  N   N42       1.0  0.39493  0.64115  0.33984  1.0000
  C   C108      1.0  0.37825  0.62028  0.33576  1.0000
  H   H86       1.0  0.38544  0.60219  0.32010  1.0000
  C   C109      1.0  0.06280  0.08968  0.31530  1.0000
  N   N43       1.0  0.08104  0.10725  0.34154  1.0000
  C   C110      1.0  0.10625  0.09985  0.35751  1.0000
  N   N44       1.0  0.11280  0.07426  0.34724  1.0000
  C   C111      1.0  0.09479  0.05635  0.32230  1.0000
  N   N45       1.0  0.07007  0.06446  0.30727  1.0000
  C   C112      1.0  0.95003  0.92188  0.31516  1.0000
  N   N46       1.0  0.93174  0.90435  0.34146  1.0000
  C   C113      1.0  0.90656  0.91182  0.35755  1.0000
  N   N47       1.0  0.90007  0.93743  0.34736  1.0000
  C   C114      1.0  0.91811  0.95529  0.32234  1.0000
  N   N48       1.0  0.94281  0.94712  0.30716  1.0000
  C   C115      1.0  0.92252  0.06217  0.31544  1.0000
  N   N49       1.0  0.90496  0.08044  0.34163  1.0000
  C   C116      1.0  0.91241  0.10563  0.35767  1.0000
  N   N50       1.0  0.93800  0.11215  0.34743  1.0000
  C   C117      1.0  0.95588  0.09413  0.32249  1.0000
  N   N51       1.0  0.94775  0.06942  0.30739  1.0000
  C   C118      1.0  0.09030  0.94944  0.31546  1.0000
  N   N52       1.0  0.10785  0.93116  0.34167  1.0000
  C   C119      1.0  0.10040  0.90595  0.35757  1.0000
  N   N53       1.0  0.07480  0.89945  0.34729  1.0000
  C   C120      1.0  0.05693  0.91748  0.32234  1.0000
  N   N54       1.0  0.06507  0.94219  0.30736  1.0000
  C   C121      1.0  0.22394  0.19260  0.36495  1.0000
  N   N55       1.0  0.21644  0.21826  0.36311  1.0000
  C   C122      1.0  0.19064  0.22521  0.36659  1.0000
  N   N56       1.0  0.17255  0.20597  0.37180  1.0000
  C   C123      1.0  0.17944  0.18044  0.37423  1.0000
  N   N57       1.0  0.20511  0.17410  0.37045  1.0000
  C   C124      1.0  0.78854  0.81937  0.36547  1.0000
  N   N58       1.0  0.79603  0.79371  0.36351  1.0000
  C   C125      1.0  0.82183  0.78674  0.36674  1.0000
  N   N59       1.0  0.83993  0.80598  0.37175  1.0000
  C   C126      1.0  0.83306  0.83151  0.37424  1.0000
  N   N60       1.0  0.80739  0.83787  0.37077  1.0000
  C   C127      1.0  0.81977  0.22343  0.36413  1.0000
  N   N61       1.0  0.79411  0.21593  0.36204  1.0000
  C   C128      1.0  0.78716  0.19013  0.36551  1.0000
  N   N62       1.0  0.80640  0.17204  0.37096  1.0000
  C   C129      1.0  0.83192  0.17893  0.37360  1.0000
  N   N63       1.0  0.83827  0.20460  0.36982  1.0000
  C   C130      1.0  0.19298  0.78804  0.36627  1.0000
  N   N64       1.0  0.21864  0.79553  0.36443  1.0000
  C   C131      1.0  0.22561  0.82134  0.36757  1.0000
  N   N65       1.0  0.20636  0.83944  0.37238  1.0000
  C   C132      1.0  0.18083  0.83257  0.37473  1.0000
  N   N66       1.0  0.17448  0.80689  0.37134  1.0000
  C   C133      1.0  0.41024  0.98463  0.34981  1.0000
  N   N67       1.0  0.39687  0.00797  0.34776  1.0000
  C   C134      1.0  0.40954  0.03165  0.34385  1.0000
  N   N68       1.0  0.43614  0.03085  0.34202  1.0000
  C   C135      1.0  0.45063  0.00867  0.34368  1.0000
  N   N69       1.0  0.43690  0.98593  0.34791  1.0000
  C   C136      1.0  0.60249  0.02673  0.34972  1.0000
  N   N70       1.0  0.61534  0.00311  0.34842  1.0000
  C   C137      1.0  0.60220  0.97964  0.34577  1.0000
  N   N71       1.0  0.57553  0.98070  0.34455  1.0000
  C   C138      1.0  0.56177  0.00340  0.34574  1.0000
  N   N72       1.0  0.57586  0.02587  0.34825  1.0000
  C   C139      1.0  0.02753  0.40991  0.34948  1.0000
  N   N73       1.0  0.00420  0.39653  0.34739  1.0000
  C   C140      1.0  0.98052  0.40920  0.34355  1.0000
  N   N74       1.0  0.98130  0.43579  0.34179  1.0000
  C   C141      1.0  0.00348  0.45030  0.34352  1.0000
  N   N75       1.0  0.02622  0.43657  0.34768  1.0000
  C   C142      1.0  0.98543  0.60215  0.35005  1.0000
  N   N76       1.0  0.00906  0.61501  0.34881  1.0000
  C   C143      1.0  0.03253  0.60185  0.34611  1.0000
  N   N77       1.0  0.03146  0.57519  0.34478  1.0000
  C   C144      1.0  0.00875  0.56144  0.34591  1.0000
  N   N78       1.0  0.98628  0.57553  0.34848  1.0000
  C   C145      1.0  0.32560  0.40662  0.35618  1.0000
  N   N79       1.0  0.33000  0.43291  0.34388  1.0000
  C   C146      1.0  0.30993  0.45067  0.33784  1.0000
  N   N80       1.0  0.28517  0.44131  0.34614  1.0000
  C   C147      1.0  0.27952  0.41580  0.35850  1.0000
  N   N81       1.0  0.30012  0.39917  0.36310  1.0000
  C   C148      1.0  0.68744  0.60486  0.35564  1.0000
  N   N82       1.0  0.68309  0.57857  0.34329  1.0000
  C   C149      1.0  0.70319  0.56085  0.33708  1.0000
  N   N83       1.0  0.72793  0.57026  0.34520  1.0000
  C   C150      1.0  0.73355  0.59578  0.35761  1.0000
  N   N84       1.0  0.71292  0.61235  0.36242  1.0000
  C   C151      1.0  0.60559  0.32480  0.35488  1.0000
  N   N85       1.0  0.57929  0.32918  0.34268  1.0000
  C   C152      1.0  0.56154  0.30909  0.33662  1.0000
  N   N86       1.0  0.57094  0.28434  0.34472  1.0000
  C   C153      1.0  0.59646  0.27870  0.35697  1.0000
  N   N87       1.0  0.61306  0.29932  0.36164  1.0000
  C   C154      1.0  0.40734  0.68665  0.35695  1.0000
  N   N88       1.0  0.43362  0.68226  0.34455  1.0000
  C   C155      1.0  0.45137  0.70235  0.33839  1.0000
  N   N89       1.0  0.44198  0.72710  0.34669  1.0000
  C   C156      1.0  0.41647  0.73274  0.35917  1.0000
  N   N90       1.0  0.39987  0.71213  0.36388  1.0000
  C   C157      1.0  0.68200  0.40648  0.34213  1.0000
  N   N91       1.0  0.67787  0.43297  0.34093  1.0000
  C   C158      1.0  0.69827  0.45026  0.33604  1.0000
  N   N92       1.0  0.72297  0.44030  0.33316  1.0000
  C   C159      1.0  0.72817  0.41440  0.33415  1.0000
  N   N93       1.0  0.70730  0.39795  0.33783  1.0000
  C   C160      1.0  0.33095  0.60500  0.34424  1.0000
  N   N94       1.0  0.33511  0.57852  0.34273  1.0000
  C   C161      1.0  0.31472  0.56123  0.33775  1.0000
  N   N95       1.0  0.29001  0.57115  0.33509  1.0000
  C   C162      1.0  0.28479  0.59705  0.33641  1.0000
  N   N96       1.0  0.30564  0.61351  0.34018  1.0000
  C   C163      1.0  0.40720  0.33016  0.34273  1.0000
  N   N97       1.0  0.43368  0.33429  0.34134  1.0000
  C   C164      1.0  0.45096  0.31388  0.33620  1.0000
  N   N98       1.0  0.44101  0.28919  0.33335  1.0000
  C   C165      1.0  0.41510  0.28399  0.33453  1.0000
  N   N99       1.0  0.39866  0.30485  0.33844  1.0000
  C   C166      1.0  0.60571  0.68119  0.34358  1.0000
  N   N100      1.0  0.57922  0.67703  0.34231  1.0000
  C   C167      1.0  0.56193  0.69743  0.33754  1.0000
  N   N101      1.0  0.57186  0.72213  0.33487  1.0000
  C   C168      1.0  0.59776  0.72735  0.33596  1.0000
  N   N102      1.0  0.61422  0.70651  0.33951  1.0000
  C   C169      1.0  0.17850  0.37209  0.37309  1.0000
  N   N103      1.0  0.15408  0.38280  0.36984  1.0000
  C   C170      1.0  0.13176  0.36815  0.35887  1.0000
  N   N104      1.0  0.13508  0.34165  0.34787  1.0000
  C   C171      1.0  0.15931  0.33036  0.34506  1.0000
  N   N105      1.0  0.17986  0.34620  0.35934  1.0000
  C   C172      1.0  0.83441  0.63994  0.37156  1.0000
  N   N106      1.0  0.85888  0.62932  0.36855  1.0000
  C   C173      1.0  0.88117  0.64404  0.35784  1.0000
  N   N107      1.0  0.87779  0.67053  0.34700  1.0000
  C   C174      1.0  0.85352  0.68174  0.34410  1.0000
  N   N108      1.0  0.83300  0.66584  0.35801  1.0000
  C   C175      1.0  0.64036  0.17773  0.37098  1.0000
  N   N109      1.0  0.62971  0.15328  0.36805  1.0000
  C   C176      1.0  0.64440  0.13096  0.35727  1.0000
  N   N110      1.0  0.67089  0.13432  0.34625  1.0000
  C   C177      1.0  0.68212  0.15857  0.34315  1.0000
  N   N111      1.0  0.66625  0.17911  0.35724  1.0000
  C   C178      1.0  0.37251  0.83364  0.37339  1.0000
  N   N112      1.0  0.38318  0.85807  0.37023  1.0000
  C   C179      1.0  0.36850  0.88038  0.35940  1.0000
  N   N113      1.0  0.34199  0.87703  0.34861  1.0000
  C   C180      1.0  0.33072  0.85279  0.34609  1.0000
  N   N114      1.0  0.34660  0.83225  0.36002  1.0000
  C   C181      1.0  0.82949  0.37066  0.32685  1.0000
  N   N115      1.0  0.85390  0.38148  0.32773  1.0000
  C   C182      1.0  0.87633  0.36710  0.34097  1.0000
  N   N116      1.0  0.87312  0.34080  0.35678  1.0000
  C   C183      1.0  0.84896  0.32945  0.36191  1.0000
  N   N117      1.0  0.82832  0.34498  0.34526  1.0000
  C   C184      1.0  0.18349  0.64084  0.33017  1.0000
  N   N118      1.0  0.15912  0.62991  0.33104  1.0000
  C   C185      1.0  0.13663  0.64420  0.34422  1.0000
  N   N119      1.0  0.13972  0.67053  0.35985  1.0000
  C   C186      1.0  0.16383  0.68199  0.36485  1.0000
  N   N120      1.0  0.18455  0.66654  0.34837  1.0000
  C   C187      1.0  0.37116  0.18274  0.32779  1.0000
  N   N121      1.0  0.38196  0.15831  0.32844  1.0000
  C   C188      1.0  0.36755  0.13589  0.34162  1.0000
  N   N122      1.0  0.34126  0.13912  0.35750  1.0000
  C   C189      1.0  0.32994  0.16329  0.36280  1.0000
  N   N123      1.0  0.34548  0.18393  0.34622  1.0000
  C   C190      1.0  0.64132  0.82873  0.32953  1.0000
  N   N124      1.0  0.63038  0.85309  0.33045  1.0000
  C   C191      1.0  0.64465  0.87558  0.34363  1.0000
  N   N125      1.0  0.67099  0.87252  0.35915  1.0000
  C   C192      1.0  0.68248  0.84842  0.36392  1.0000
  N   N126      1.0  0.66703  0.82769  0.34752  1.0000
  C   C193      1.0  0.12544  0.11912  0.37231  1.0000
  C   C194      1.0  0.16058  0.16067  0.37708  1.0000
  N   N127      1.0  0.16825  0.13577  0.39400  1.0000
  C   C195      1.0  0.15220  0.11468  0.39377  1.0000
  C   C196      1.0  0.16443  0.08917  0.41648  1.0000
  O   O23       1.0  0.15197  0.07681  0.49183  1.0000
  H   H87       1.0  0.18527  0.09147  0.43165  1.0000
  H   H88       1.0  0.16318  0.07621  0.35821  1.0000
  H   H89       1.0  0.15498  0.08765  0.54580  1.0000
  C   C197      1.0  0.88729  0.89263  0.37253  1.0000
  C   C198      1.0  0.85198  0.85123  0.37701  1.0000
  N   N128      1.0  0.84440  0.87615  0.39397  1.0000
  C   C199      1.0  0.86054  0.89718  0.39383  1.0000
  C   C200      1.0  0.84839  0.92273  0.41649  1.0000
  O   O24       1.0  0.86088  0.93506  0.49186  1.0000
  H   H90       1.0  0.82754  0.92050  0.43161  1.0000
  H   H91       1.0  0.84970  0.93569  0.35821  1.0000
  H   H92       1.0  0.85781  0.92422  0.54583  1.0000
  C   C201      1.0  0.89316  0.12486  0.37234  1.0000
  C   C202      1.0  0.85167  0.16006  0.37667  1.0000
  N   N129      1.0  0.87657  0.16770  0.39367  1.0000
  C   C203      1.0  0.89764  0.15162  0.39365  1.0000
  C   C204      1.0  0.92316  0.16382  0.41639  1.0000
  O   O25       1.0  0.93548  0.15138  0.49186  1.0000
  H   H93       1.0  0.92087  0.18467  0.43145  1.0000
  H   H94       1.0  0.93614  0.16253  0.35818  1.0000
  H   H95       1.0  0.92462  0.15443  0.54577  1.0000
  C   C205      1.0  0.11962  0.88672  0.37258  1.0000
  C   C206      1.0  0.16108  0.85146  0.37732  1.0000
  N   N130      1.0  0.13616  0.84385  0.39420  1.0000
  C   C207      1.0  0.11511  0.85996  0.39393  1.0000
  C   C208      1.0  0.08957  0.84779  0.41655  1.0000
  O   O26       1.0  0.07721  0.86027  0.49186  1.0000
  H   H96       1.0  0.09182  0.82694  0.43171  1.0000
  H   H97       1.0  0.07662  0.84907  0.35823  1.0000
  H   H98       1.0  0.08803  0.85723  0.54587  1.0000
  N   N131      1.0  0.11107  0.98794  0.36649  1.0000
  C   C209      1.0  0.11413  0.01427  0.37116  1.0000
  H   H99       1.0  0.12387  0.02232  0.42468  1.0000
  N   N132      1.0  0.90179  0.02368  0.36629  1.0000
  C   C210      1.0  0.89874  0.99735  0.37098  1.0000
  H   H100      1.0  0.88911  0.98933  0.42480  1.0000
  N   N133      1.0  0.02430  0.11042  0.36642  1.0000
  C   C211      1.0  0.99797  0.11346  0.37119  1.0000
  H   H101      1.0  0.98993  0.12319  0.42474  1.0000
  N   N134      1.0  0.98852  0.90112  0.36608  1.0000
  C   C212      1.0  0.01485  0.89807  0.37081  1.0000
  H   H102      1.0  0.02286  0.88842  0.42459  1.0000
  N   N135      1.0  0.15106  0.28591  0.38472  1.0000
  C   C213      1.0  0.15770  0.26035  0.39479  1.0000
  H   H103      1.0  0.14572  0.24837  0.43146  1.0000
  N   N136      1.0  0.86154  0.72613  0.38455  1.0000
  C   C214      1.0  0.85480  0.75166  0.39497  1.0000
  H   H104      1.0  0.86665  0.76359  0.43227  1.0000
  N   N137      1.0  0.72652  0.15047  0.38343  1.0000
  C   C215      1.0  0.75206  0.15718  0.39377  1.0000
  H   H105      1.0  0.76402  0.14527  0.43080  1.0000
  N   N138      1.0  0.28628  0.86095  0.38577  1.0000
  C   C216      1.0  0.26072  0.85429  0.39581  1.0000
  H   H106      1.0  0.24876  0.86621  0.43275  1.0000
  C   C217      1.0  0.84280  0.30259  0.37411  1.0000
  C   C218      1.0  0.82796  0.24980  0.36438  1.0000
  N   N139      1.0  0.81314  0.26773  0.40784  1.0000
  C   C219      1.0  0.81925  0.29349  0.41559  1.0000
  C   C220      1.0  0.80110  0.30948  0.47146  1.0000
  O   O27       1.0  0.81453  0.32414  0.53954  1.0000
  H   H107      1.0  0.78631  0.29719  0.50407  1.0000
  H   H108      1.0  0.79050  0.32312  0.42855  1.0000
  H   H109      1.0  0.82225  0.31173  0.58286  1.0000
  C   C221      1.0  0.16990  0.70887  0.37718  1.0000
  C   C222      1.0  0.18477  0.76166  0.36693  1.0000
  N   N140      1.0  0.19950  0.74379  0.41105  1.0000
  C   C223      1.0  0.19336  0.71804  0.41911  1.0000
  C   C224      1.0  0.21140  0.70211  0.47558  1.0000
  O   O28       1.0  0.19784  0.68752  0.54349  1.0000
  H   H110      1.0  0.22613  0.71444  0.50839  1.0000
  H   H111      1.0  0.22209  0.68843  0.43308  1.0000
  H   H112      1.0  0.19003  0.69997  0.58650  1.0000
  C   C225      1.0  0.30309  0.16947  0.37505  1.0000
  C   C226      1.0  0.25031  0.18439  0.36521  1.0000
  N   N141      1.0  0.26825  0.19915  0.40887  1.0000
  C   C227      1.0  0.29400  0.19301  0.41665  1.0000
  C   C228      1.0  0.30999  0.21109  0.47274  1.0000
  O   O29       1.0  0.32461  0.19759  0.54076  1.0000
  H   H113      1.0  0.29772  0.22588  0.50542  1.0000
  H   H114      1.0  0.32367  0.22170  0.42997  1.0000
  H   H115      1.0  0.31217  0.18986  0.58397  1.0000
  C   C229      1.0  0.70936  0.84237  0.37629  1.0000
  C   C230      1.0  0.76217  0.82758  0.36617  1.0000
  N   N142      1.0  0.74430  0.81280  0.41010  1.0000
  C   C231      1.0  0.71854  0.81890  0.41812  1.0000
  C   C232      1.0  0.70262  0.80080  0.47439  1.0000
  O   O30       1.0  0.68797  0.81430  0.54232  1.0000
  H   H116      1.0  0.71496  0.78608  0.50718  1.0000
  H   H117      1.0  0.68898  0.79011  0.43175  1.0000
  H   H118      1.0  0.70039  0.82210  0.58544  1.0000
  N   N143      1.0  0.36318  0.08875  0.35459  1.0000
  C   C233      1.0  0.37110  0.06320  0.35580  1.0000
  H   H119      1.0  0.35773  0.04878  0.36829  1.0000
  N   N144      1.0  0.64875  0.92273  0.35589  1.0000
  C   C234      1.0  0.64070  0.94823  0.35705  1.0000
  H   H120      1.0  0.65404  0.96272  0.36869  1.0000
  N   N145      1.0  0.92347  0.36277  0.35399  1.0000
  C   C235      1.0  0.94901  0.37071  0.35526  1.0000
  H   H121      1.0  0.96344  0.35736  0.36768  1.0000
  N   N146      1.0  0.08948  0.64835  0.35647  1.0000
  C   C236      1.0  0.06398  0.64032  0.35758  1.0000
  H   H122      1.0  0.04950  0.65367  0.36929  1.0000
  C   C237      1.0  0.63299  0.10508  0.35724  1.0000
  C   C238      1.0  0.61426  0.05227  0.35256  1.0000
  N   N147      1.0  0.59850  0.07347  0.36411  1.0000
  C   C239      1.0  0.60590  0.09906  0.36748  1.0000
  C   C240      1.0  0.58448  0.11815  0.38308  1.0000
  O   O31       1.0  0.58727  0.13166  0.46723  1.0000
  H   H123      1.0  0.56534  0.10853  0.38218  1.0000
  H   H124      1.0  0.58432  0.13240  0.32830  1.0000
  H   H125      1.0  0.58534  0.11887  0.51653  1.0000
  C   C241      1.0  0.37994  0.90625  0.35904  1.0000
  C   C242      1.0  0.39864  0.95904  0.35345  1.0000
  N   N148      1.0  0.41443  0.93791  0.36584  1.0000
  C   C243      1.0  0.40700  0.91232  0.36973  1.0000
  C   C244      1.0  0.42838  0.89325  0.38639  1.0000
  O   O32       1.0  0.42534  0.87987  0.47069  1.0000
  H   H126      1.0  0.44752  0.90286  0.38596  1.0000
  H   H127      1.0  0.42868  0.87891  0.33189  1.0000
  H   H128      1.0  0.42713  0.89273  0.51982  1.0000
  C   C245      1.0  0.10590  0.37960  0.35856  1.0000
  C   C246      1.0  0.05313  0.39832  0.35306  1.0000
  N   N149      1.0  0.07425  0.41410  0.36551  1.0000
  C   C247      1.0  0.09985  0.40667  0.36936  1.0000
  C   C248      1.0  0.11892  0.42802  0.38612  1.0000
  O   O33       1.0  0.13229  0.42494  0.47042  1.0000
  H   H129      1.0  0.10932  0.44717  0.38576  1.0000
  H   H130      1.0  0.13327  0.42834  0.33164  1.0000
  H   H131      1.0  0.11943  0.42673  0.51955  1.0000
  C   C249      1.0  0.90707  0.63264  0.35774  1.0000
  C   C250      1.0  0.95989  0.61393  0.35296  1.0000
  N   N150      1.0  0.93869  0.59816  0.36444  1.0000
  C   C251      1.0  0.91310  0.60556  0.36787  1.0000
  C   C252      1.0  0.89403  0.58411  0.38335  1.0000
  O   O34       1.0  0.88051  0.58686  0.46751  1.0000
  H   H132      1.0  0.90366  0.56498  0.38235  1.0000
  H   H133      1.0  0.87978  0.58396  0.32857  1.0000
  H   H134      1.0  0.89330  0.58491  0.51681  1.0000
  N   N151      1.0  0.49119  0.98540  0.35037  1.0000
  C   C253      1.0  0.51758  0.98211  0.35130  1.0000
  H   H135      1.0  0.52510  0.96368  0.35798  1.0000
  N   N152      1.0  0.02675  0.49086  0.35028  1.0000
  C   C254      1.0  0.03004  0.51724  0.35129  1.0000
  H   H136      1.0  0.04846  0.52476  0.35802  1.0000
  C   C255      1.0  0.20304  0.38494  0.38243  1.0000
  C   C256      1.0  0.25342  0.40679  0.36664  1.0000
  N   N153      1.0  0.24884  0.38488  0.41552  1.0000
  C   C257      1.0  0.22506  0.37349  0.42680  1.0000
  C   C258      1.0  0.22435  0.35033  0.48753  1.0000
  O   O35       1.0  0.20458  0.35255  0.55555  1.0000
  H   H137      1.0  0.24329  0.34730  0.52050  1.0000
  H   H138      1.0  0.22051  0.33277  0.44816  1.0000
  H   H139      1.0  0.20931  0.36712  0.59588  1.0000
  C   C259      1.0  0.80990  0.62701  0.38094  1.0000
  C   C260      1.0  0.75963  0.60488  0.36562  1.0000
  N   N154      1.0  0.76412  0.62687  0.41415  1.0000
  C   C261      1.0  0.78784  0.63839  0.42526  1.0000
  C   C262      1.0  0.78842  0.66165  0.48560  1.0000
  O   O36       1.0  0.80822  0.65964  0.55362  1.0000
  H   H140      1.0  0.76947  0.66461  0.51856  1.0000
  H   H141      1.0  0.79216  0.67917  0.44592  1.0000
  H   H142      1.0  0.80358  0.64509  0.59420  1.0000
  C   C263      1.0  0.62747  0.20227  0.38036  1.0000
  C   C264      1.0  0.60551  0.25260  0.36496  1.0000
  N   N155      1.0  0.62747  0.24805  0.41357  1.0000
  C   C265      1.0  0.63892  0.22429  0.42469  1.0000
  C   C266      1.0  0.66214  0.22363  0.48519  1.0000
  O   O37       1.0  0.66002  0.20385  0.55320  1.0000
  H   H143      1.0  0.66515  0.24257  0.51816  1.0000
  H   H144      1.0  0.67967  0.21983  0.44564  1.0000
  H   H145      1.0  0.64547  0.20853  0.59368  1.0000
  C   C267      1.0  0.38542  0.80913  0.38292  1.0000
  C   C268      1.0  0.40742  0.75883  0.36730  1.0000
  N   N156      1.0  0.38549  0.76335  0.41612  1.0000
  C   C269      1.0  0.37403  0.78709  0.42735  1.0000
  C   C270      1.0  0.35084  0.78774  0.48796  1.0000
  O   O38       1.0  0.35295  0.80754  0.55590  1.0000
  H   H146      1.0  0.34787  0.76880  0.52099  1.0000
  H   H147      1.0  0.33328  0.79150  0.44847  1.0000
  H   H148      1.0  0.36752  0.80288  0.59633  1.0000
  N   N157      1.0  0.80037  0.40653  0.35746  1.0000
  C   C271      1.0  0.77644  0.41819  0.36270  1.0000
  H   H149      1.0  0.77463  0.43551  0.39663  1.0000
  N   N158      1.0  0.21260  0.60492  0.35996  1.0000
  C   C272      1.0  0.23651  0.59321  0.36477  1.0000
  H   H150      1.0  0.23830  0.57584  0.39835  1.0000
  N   N159      1.0  0.40714  0.21180  0.35791  1.0000
  C   C273      1.0  0.41885  0.23570  0.36295  1.0000
  H   H151      1.0  0.43622  0.23747  0.39661  1.0000
  N   N160      1.0  0.60551  0.79955  0.35961  1.0000
  C   C274      1.0  0.59386  0.77561  0.36456  1.0000
  H   H152      1.0  0.57654  0.77377  0.39842  1.0000
  N   N161      1.0  0.33377  0.49090  0.36489  1.0000
  C   C275      1.0  0.33686  0.51745  0.36697  1.0000
  H   H153      1.0  0.35268  0.52538  0.39904  1.0000
  N   N162      1.0  0.67930  0.52061  0.36358  1.0000
  C   C276      1.0  0.67616  0.49405  0.36537  1.0000
  H   H154      1.0  0.66031  0.48615  0.39732  1.0000
  N   N163      1.0  0.52130  0.33292  0.36357  1.0000
  C   C277      1.0  0.49474  0.33601  0.36560  1.0000
  H   H155      1.0  0.48681  0.35185  0.39757  1.0000
  N   N164      1.0  0.49158  0.67845  0.36489  1.0000
  C   C278      1.0  0.51814  0.67530  0.36671  1.0000
  H   H156      1.0  0.52604  0.65944  0.39866  1.0000
  C   C279      1.0  0.34590  0.38701  0.35777  1.0000
  C   C280      1.0  0.38797  0.35044  0.34824  1.0000
  N   N165      1.0  0.36299  0.34352  0.36789  1.0000
  C   C281      1.0  0.34199  0.35973  0.37434  1.0000
  C   C282      1.0  0.31714  0.34654  0.40003  1.0000
  O   O39       1.0  0.30676  0.35625  0.48335  1.0000
  H   H157      1.0  0.31978  0.32535  0.40649  1.0000
  H   H158      1.0  0.30273  0.34940  0.34670  1.0000
  H   H159      1.0  0.31901  0.35168  0.53219  1.0000
  C   C283      1.0  0.66712  0.62443  0.35755  1.0000
  C   C284      1.0  0.62497  0.66093  0.34873  1.0000
  N   N166      1.0  0.64995  0.66788  0.36815  1.0000
  C   C285      1.0  0.67099  0.65171  0.37428  1.0000
  C   C286      1.0  0.69584  0.66494  0.39972  1.0000
  O   O40       1.0  0.70632  0.65522  0.48287  1.0000
  H   H160      1.0  0.69317  0.68612  0.40629  1.0000
  H   H161      1.0  0.71020  0.66212  0.34620  1.0000
  H   H162      1.0  0.69411  0.65975  0.53188  1.0000
  C   C287      1.0  0.62518  0.34512  0.35657  1.0000
  C   C288      1.0  0.66172  0.38723  0.34743  1.0000
  N   N167      1.0  0.66866  0.36225  0.36687  1.0000
  C   C289      1.0  0.65247  0.34123  0.37314  1.0000
  C   C290      1.0  0.66568  0.31638  0.39864  1.0000
  O   O41       1.0  0.65598  0.30594  0.48189  1.0000
  H   H163      1.0  0.68686  0.31903  0.40510  1.0000
  H   H164      1.0  0.66283  0.30200  0.34520  1.0000
  H   H165      1.0  0.66054  0.31816  0.53081  1.0000
  C   C291      1.0  0.38775  0.66634  0.35877  1.0000
  C   C292      1.0  0.35122  0.62424  0.34958  1.0000
  N   N168      1.0  0.34429  0.64921  0.36922  1.0000
  C   C293      1.0  0.36047  0.67023  0.37552  1.0000
  C   C294      1.0  0.34727  0.69507  0.40116  1.0000
  O   O42       1.0  0.35701  0.70550  0.48437  1.0000
  H   H166      1.0  0.32609  0.69241  0.40774  1.0000
  H   H167      1.0  0.35010  0.70946  0.34774  1.0000
  H   H168      1.0  0.35248  0.69327  0.53330  1.0000
