data_image0
_chemical_formula_structural       C2NC2O2HC2NC2O2HNCHNCHNCHNCHNCHNCHC2NC2O2HC2NC2O2HNCHNCHC2NC2O2HC2NC2O2HNCHNCHNCHNCHC2NC2O2HC2NC2O2HNCHNCHC2NC2O2HC2NC2O2HNCHNCHNCHNCHC2NC2O2HC2NC2O2HCNCNCNCNCNCNCNCNCNCNCNCNCNCNCNCNCNCNCNCNCNCNCNCNCNCNCNCNCNCNCNCNCNCNCNCNCNCNCNCNCNCNCNCNCNCNCNCNCNCNCNCNCNCNCNCNCNCNCNCN2CHNCHC2NC2O2HC2NC2O2HC2NC2O2HC2NC2O2HC2NC2O2HC2NC2O2HNCHNCHC2NC2O2HC2NC2O2HNCHNCHC2NC2O2HC2NC2O2HC2NC2O2HC2NC2O2HNCHNCHC2NC2O2HC2NC2O2HNCHNCHC2NC2O2HC2NC2O2HC2NC2O2HC2NC2O2HNCHNCHC2NC2O2HC2NC2O2HNCHNCHNCHNCHNCHNCHC2NC2O2HC2NC2O2HNCHNCHC2NC2O2HC2NC2O2HNCHNCHNCHNCHC2NC2O2HC2NC2O2HNCHNCHC2NC2O2HC2NC2O2HNCHNCHNCHNCHC2NC2O2HC2NC2O2HCNCNCNCNCNCNCNCNCNCNCNCNCNCNCNCNCNCNCNCNCNCNCNCNCNCNCNCNCNCNCNCNCNCNCNCNCNCNCNCNCNCNCNCNCNCNCNCNCNCNCNCNCNCNCNCNCNCNCNCN2CHNCHC2NC2O2HC2NC2O2HC2NC2O2HC2NC2O2HC2NC2O2HC2NC2O2HNCHNCHC2NC2O2HC2NC2O2HNCHNCHC2NC2O2HC2NC2O2HC2NC2O2HC2NC2O2HNCHNCHC2NC2O2HC2NC2O2HNCHNCHC2NC2O2HC2NC2O2HC2NC2O2HC2NC2O2HNCHNCH
_chemical_formula_sum              "C420 N240 O120 H120"
_cell_length_a       83.7101
_cell_length_b       44.0942
_cell_length_c       14.8965
_cell_angle_alpha    90
_cell_angle_beta     90
_cell_angle_gamma    90

_space_group_name_H-M_alt    "P 1"
_space_group_IT_number       1

loop_
  _space_group_symop_operation_xyz
  'x, y, z'

loop_
  _atom_site_type_symbol
  _atom_site_label
  _atom_site_symmetry_multiplicity
  _atom_site_fract_x
  _atom_site_fract_y
  _atom_site_fract_z
  _atom_site_occupancy
  C   C1        1.0  0.23795  0.13666  0.32653  1.0000
  C   C2        1.0  0.27091  0.12358  0.31695  1.0000
  N   N1        1.0  0.25934  0.10327  0.29287  1.0000
  C   C3        1.0  0.24330  0.10827  0.29392  1.0000
  C   C4        1.0  0.23320  0.08541  0.26470  1.0000
  O   O1        1.0  0.23596  0.05964  0.29065  1.0000
  O   O2        1.0  0.22684  0.08703  0.18992  1.0000
  H   H1        1.0  0.22524  0.10403  0.15942  1.0000
  C   C5        1.0  0.76902  0.37331  0.32599  1.0000
  C   C6        1.0  0.73624  0.38732  0.31562  1.0000
  N   N2        1.0  0.74794  0.40752  0.29328  1.0000
  C   C7        1.0  0.76394  0.40209  0.29491  1.0000
  C   C8        1.0  0.77422  0.42480  0.26683  1.0000
  O   O3        1.0  0.77149  0.45072  0.29162  1.0000
  O   O4        1.0  0.78090  0.42322  0.19288  1.0000
  H   H2        1.0  0.78250  0.40626  0.16222  1.0000
  N   N3        1.0  0.75782  0.15882  0.35349  1.0000
  C   C9        1.0  0.74200  0.15216  0.35451  1.0000
  H   H3        1.0  0.73382  0.16861  0.33942  1.0000
  N   N4        1.0  0.24853  0.35033  0.35894  1.0000
  C   C10       1.0  0.26433  0.35724  0.36082  1.0000
  H   H4        1.0  0.27265  0.34067  0.34971  1.0000
  N   N5        1.0  0.31387  0.02190  0.36314  1.0000
  C   C11       1.0  0.31474  0.49137  0.36267  1.0000
  H   H5        1.0  0.32503  0.48108  0.34143  1.0000
  N   N6        1.0  0.69227  0.48853  0.35787  1.0000
  C   C12       1.0  0.69104  0.01904  0.36082  1.0000
  H   H6        1.0  0.68078  0.02916  0.33866  1.0000
  N   N7        1.0  0.81438  0.27433  0.35862  1.0000
  C   C13       1.0  0.81552  0.24379  0.35587  1.0000
  H   H7        1.0  0.82544  0.23405  0.32811  1.0000
  N   N8        1.0  0.19227  0.23458  0.36039  1.0000
  C   C14       1.0  0.19104  0.26507  0.35700  1.0000
  H   H8        1.0  0.18114  0.27464  0.32847  1.0000
  C   C15       1.0  0.33079  0.12506  0.31872  1.0000
  C   C16       1.0  0.36280  0.14378  0.33018  1.0000
  N   N9        1.0  0.35863  0.11735  0.29034  1.0000
  C   C17       1.0  0.34339  0.10716  0.28176  1.0000
  C   C18       1.0  0.34117  0.08009  0.23534  1.0000
  O   O5        1.0  0.35090  0.05966  0.24501  1.0000
  O   O6        1.0  0.33303  0.07871  0.16619  1.0000
  H   H9        1.0  0.32648  0.09309  0.14697  1.0000
  C   C19       1.0  0.67668  0.38411  0.31048  1.0000
  C   C20       1.0  0.64479  0.36522  0.32346  1.0000
  N   N10       1.0  0.64897  0.39062  0.27806  1.0000
  C   C21       1.0  0.66418  0.40081  0.26808  1.0000
  C   C22       1.0  0.66649  0.42670  0.21691  1.0000
  O   O7        1.0  0.65601  0.44613  0.21414  1.0000
  O   O8        1.0  0.67634  0.42529  0.15514  1.0000
  H   H10       1.0  0.67807  0.44001  0.11585  1.0000
  N   N11       1.0  0.66685  0.11205  0.29921  1.0000
  C   C23       1.0  0.65116  0.11887  0.29259  1.0000
  H   H11       1.0  0.64370  0.10455  0.25838  1.0000
  N   N12       1.0  0.33228  0.35969  0.32985  1.0000
  C   C24       1.0  0.34748  0.34985  0.31552  1.0000
  H   H12       1.0  0.34950  0.33290  0.27000  1.0000
  C   C25       1.0  0.82848  0.38073  0.32142  1.0000
  C   C26       1.0  0.86103  0.39486  0.33605  1.0000
  N   N13       1.0  0.85559  0.37542  0.27239  1.0000
  C   C27       1.0  0.83993  0.36798  0.26187  1.0000
  C   C28       1.0  0.83578  0.34864  0.19254  1.0000
  O   O9        1.0  0.83176  0.36089  0.12253  1.0000
  O   O10       1.0  0.84240  0.32385  0.18256  1.0000
  H   H13       1.0  0.84644  0.31294  0.22707  1.0000
  C   C29       1.0  0.17817  0.12955  0.31534  1.0000
  C   C30       1.0  0.14586  0.11332  0.33034  1.0000
  N   N14       1.0  0.15068  0.13638  0.27656  1.0000
  C   C31       1.0  0.16615  0.14508  0.26552  1.0000
  C   C32       1.0  0.16937  0.16867  0.20627  1.0000
  O   O11       1.0  0.17828  0.16284  0.14362  1.0000
  O   O12       1.0  0.15993  0.18974  0.19282  1.0000
  H   H14       1.0  0.15275  0.19609  0.23220  1.0000
  N   N15       1.0  0.16462  0.35563  0.31942  1.0000
  C   C33       1.0  0.14901  0.36294  0.31411  1.0000
  H   H15       1.0  0.14094  0.34666  0.29561  1.0000
  N   N16       1.0  0.84162  0.15292  0.31870  1.0000
  C   C34       1.0  0.85721  0.14550  0.31252  1.0000
  H   H16       1.0  0.86527  0.16175  0.29373  1.0000
  N   N17       1.0  0.08652  0.20134  0.32578  1.0000
  C   C35       1.0  0.09696  0.17790  0.32406  1.0000
  H   H17       1.0  0.10885  0.18297  0.32017  1.0000
  N   N18       1.0  0.92035  0.30696  0.32499  1.0000
  C   C36       1.0  0.90992  0.33039  0.32349  1.0000
  H   H18       1.0  0.89803  0.32532  0.31913  1.0000
  C   C37       1.0  0.93445  0.19998  0.33028  1.0000
  C   C38       1.0  0.91664  0.14452  0.33376  1.0000
  N   N19       1.0  0.90994  0.17253  0.32563  1.0000
  C   C39       1.0  0.91749  0.19973  0.32365  1.0000
  C   C40       1.0  0.90782  0.22476  0.31217  1.0000
  O   O13       1.0  0.89670  0.22808  0.36485  1.0000
  O   O14       1.0  0.90649  0.23446  0.23479  1.0000
  H   H19       1.0  0.89980  0.24907  0.21882  1.0000
  C   C41       1.0  0.07179  0.30824  0.33549  1.0000
  C   C42       1.0  0.08955  0.36381  0.33879  1.0000
  N   N20       1.0  0.09627  0.33581  0.33069  1.0000
  C   C43       1.0  0.08876  0.30860  0.32892  1.0000
  C   C44       1.0  0.09858  0.28357  0.31754  1.0000
  O   O15       1.0  0.10916  0.27971  0.37289  1.0000
  O   O16       1.0  0.10151  0.27385  0.24148  1.0000
  H   H20       1.0  0.09534  0.27659  0.19383  1.0000
  N   N21       1.0  0.58613  0.45231  0.31516  1.0000
  C   C45       1.0  0.59633  0.42855  0.31413  1.0000
  H   H21       1.0  0.60826  0.43333  0.31073  1.0000
  N   N22       1.0  0.44215  0.08442  0.32945  1.0000
  C   C46       1.0  0.43420  0.11161  0.32928  1.0000
  H   H22       1.0  0.44055  0.13141  0.32817  1.0000
  C   C47       1.0  0.43629  0.44718  0.33451  1.0000
  C   C48       1.0  0.41495  0.39663  0.34050  1.0000
  N   N23       1.0  0.43112  0.39322  0.33504  1.0000
  C   C49       1.0  0.44191  0.41665  0.33214  1.0000
  C   C50       1.0  0.45787  0.40923  0.32565  1.0000
  O   O17       1.0  0.46459  0.40332  0.39630  1.0000
  O   O18       1.0  0.46288  0.39461  0.26069  1.0000
  H   H23       1.0  0.45879  0.39558  0.20589  1.0000
  C   C51       1.0  0.57255  0.05973  0.32332  1.0000
  C   C52       1.0  0.59070  0.11471  0.32790  1.0000
  N   N24       1.0  0.59729  0.08662  0.31984  1.0000
  C   C53       1.0  0.58954  0.05963  0.31734  1.0000
  C   C54       1.0  0.59913  0.03429  0.30639  1.0000
  O   O19       1.0  0.60980  0.03015  0.36102  1.0000
  O   O20       1.0  0.60194  0.02406  0.23073  1.0000
  H   H24       1.0  0.59580  0.02689  0.18299  1.0000
  N   N25       1.0  0.09378  0.48875  0.35274  1.0000
  C   C55       1.0  0.09243  0.01986  0.35101  1.0000
  H   H25       1.0  0.08169  0.02958  0.33549  1.0000
  N   N26       1.0  0.91265  0.01975  0.34991  1.0000
  C   C56       1.0  0.91416  0.48865  0.34942  1.0000
  H   H26       1.0  0.92490  0.47905  0.33357  1.0000
  N   N27       1.0  0.59387  0.23893  0.34510  1.0000
  C   C57       1.0  0.59217  0.26998  0.34271  1.0000
  H   H27       1.0  0.58144  0.27923  0.32490  1.0000
  N   N28       1.0  0.41241  0.27229  0.33630  1.0000
  C   C58       1.0  0.41452  0.24130  0.33570  1.0000
  H   H28       1.0  0.42562  0.23244  0.32457  1.0000
  C   C59       1.0  0.98643  0.25137  0.33517  1.0000
  C   C60       1.0  0.02027  0.25497  0.33877  1.0000
  N   N29       1.0  0.01232  0.22841  0.32589  1.0000
  C   C61       1.0  0.99613  0.22509  0.32374  1.0000
  C   C62       1.0  0.99028  0.19638  0.30504  1.0000
  O   O21       1.0  0.99573  0.17506  0.34760  1.0000
  O   O22       1.0  0.98586  0.18970  0.22831  1.0000
  H   H29       1.0  0.98276  0.20290  0.18696  1.0000
  C   C63       1.0  0.48673  0.00361  0.32158  1.0000
  C   C64       1.0  0.52053  0.00805  0.32430  1.0000
  N   N30       1.0  0.51275  0.98186  0.30457  1.0000
  C   C65       1.0  0.49663  0.97813  0.30212  1.0000
  C   C66       1.0  0.49116  0.95002  0.27404  1.0000
  O   O23       1.0  0.49725  0.92755  0.30776  1.0000
  O   O24       1.0  0.48629  0.94651  0.19633  1.0000
  H   H30       1.0  0.48257  0.96115  0.16134  1.0000
  C   C67       1.0  0.31516  0.11335  0.33249  1.0000
  N   N31       1.0  0.30092  0.12822  0.31947  1.0000
  C   C68       1.0  0.28671  0.11296  0.32888  1.0000
  N   N32       1.0  0.28726  0.08363  0.35426  1.0000
  C   C69       1.0  0.30089  0.06882  0.37197  1.0000
  N   N33       1.0  0.31468  0.08393  0.35881  1.0000
  C   C70       1.0  0.69204  0.39668  0.32515  1.0000
  N   N34       1.0  0.70642  0.38220  0.31456  1.0000
  C   C71       1.0  0.72042  0.39794  0.32514  1.0000
  N   N35       1.0  0.71956  0.42738  0.34939  1.0000
  C   C72       1.0  0.70570  0.44186  0.36466  1.0000
  N   N36       1.0  0.69209  0.42624  0.35034  1.0000
  C   C73       1.0  0.69306  0.11504  0.35698  1.0000
  N   N37       1.0  0.70778  0.12864  0.36140  1.0000
  C   C74       1.0  0.72134  0.11180  0.37544  1.0000
  N   N38       1.0  0.71966  0.08146  0.38543  1.0000
  C   C75       1.0  0.70538  0.06745  0.38213  1.0000
  N   N39       1.0  0.69235  0.08453  0.36695  1.0000
  C   C76       1.0  0.31314  0.39577  0.38359  1.0000
  N   N40       1.0  0.29854  0.38164  0.37981  1.0000
  C   C77       1.0  0.28468  0.39839  0.37885  1.0000
  N   N41       1.0  0.28593  0.42899  0.38069  1.0000
  C   C78       1.0  0.30010  0.44335  0.38142  1.0000
  N   N42       1.0  0.31340  0.42641  0.38221  1.0000
  C   C79       1.0  0.81354  0.36678  0.33629  1.0000
  N   N43       1.0  0.79887  0.38001  0.32539  1.0000
  C   C80       1.0  0.78513  0.36362  0.33808  1.0000
  N   N44       1.0  0.78680  0.33430  0.36249  1.0000
  C   C81       1.0  0.80097  0.32071  0.37612  1.0000
  N   N45       1.0  0.81429  0.33716  0.36047  1.0000
  C   C82       1.0  0.19326  0.14294  0.33242  1.0000
  N   N46       1.0  0.20799  0.12975  0.32224  1.0000
  C   C83       1.0  0.22173  0.14594  0.33809  1.0000
  N   N47       1.0  0.21999  0.17502  0.36485  1.0000
  C   C84       1.0  0.20580  0.18847  0.37832  1.0000
  N   N48       1.0  0.19256  0.17223  0.35975  1.0000
  C   C85       1.0  0.19197  0.36111  0.35480  1.0000
  N   N49       1.0  0.20657  0.37517  0.35852  1.0000
  C   C86       1.0  0.22041  0.35885  0.36954  1.0000
  N   N50       1.0  0.21914  0.32839  0.37852  1.0000
  C   C87       1.0  0.20499  0.31390  0.37616  1.0000
  N   N51       1.0  0.19173  0.33054  0.36370  1.0000
  C   C88       1.0  0.81429  0.14765  0.35498  1.0000
  N   N52       1.0  0.79965  0.13373  0.35882  1.0000
  C   C89       1.0  0.78585  0.15019  0.36945  1.0000
  N   N53       1.0  0.78720  0.18068  0.37783  1.0000
  C   C90       1.0  0.80139  0.19506  0.37542  1.0000
  N   N54       1.0  0.81460  0.17824  0.36334  1.0000
  C   C91       1.0  0.10194  0.12246  0.33325  1.0000
  N   N55       1.0  0.09747  0.09256  0.34384  1.0000
  C   C92       1.0  0.10859  0.06980  0.35331  1.0000
  N   N56       1.0  0.12423  0.07837  0.35042  1.0000
  C   C93       1.0  0.12935  0.10693  0.33745  1.0000
  N   N57       1.0  0.11793  0.12843  0.32883  1.0000
  C   C94       1.0  0.90493  0.38578  0.33402  1.0000
  N   N58       1.0  0.90936  0.41574  0.34406  1.0000
  C   C95       1.0  0.89823  0.43844  0.35430  1.0000
  N   N59       1.0  0.88262  0.42969  0.35340  1.0000
  C   C96       1.0  0.87754  0.40108  0.34133  1.0000
  N   N60       1.0  0.88894  0.37965  0.33114  1.0000
  C   C97       1.0  0.90601  0.11933  0.33761  1.0000
  N   N61       1.0  0.90940  0.08884  0.34807  1.0000
  C   C98       1.0  0.89744  0.06739  0.35605  1.0000
  N   N62       1.0  0.88226  0.07810  0.35042  1.0000
  C   C99       1.0  0.87809  0.10717  0.33859  1.0000
  N   N63       1.0  0.89027  0.12707  0.33304  1.0000
  C   C100      1.0  0.10019  0.38899  0.34213  1.0000
  N   N64       1.0  0.09684  0.41951  0.35240  1.0000
  C   C101      1.0  0.10882  0.44094  0.35975  1.0000
  N   N65       1.0  0.12398  0.43017  0.35346  1.0000
  C   C102      1.0  0.12812  0.40109  0.34173  1.0000
  N   N66       1.0  0.11592  0.38122  0.33694  1.0000
  C   C103      1.0  0.60091  0.37304  0.32465  1.0000
  N   N67       1.0  0.59657  0.34306  0.33545  1.0000
  C   C104      1.0  0.60781  0.32052  0.34589  1.0000
  N   N68       1.0  0.62342  0.32935  0.34336  1.0000
  C   C105      1.0  0.62839  0.35796  0.33012  1.0000
  N   N69       1.0  0.61686  0.37914  0.32104  1.0000
  C   C106      1.0  0.40687  0.13729  0.33140  1.0000
  N   N70       1.0  0.41094  0.16760  0.33567  1.0000
  C   C107      1.0  0.39945  0.18988  0.34126  1.0000
  N   N71       1.0  0.38396  0.18030  0.34105  1.0000
  C   C108      1.0  0.37920  0.15133  0.33491  1.0000
  N   N72       1.0  0.39096  0.13042  0.32998  1.0000
  C   C109      1.0  0.40411  0.37177  0.34247  1.0000
  N   N73       1.0  0.40793  0.34124  0.34131  1.0000
  C   C110      1.0  0.39634  0.31900  0.34408  1.0000
  N   N74       1.0  0.38105  0.32914  0.34448  1.0000
  C   C111      1.0  0.37650  0.35820  0.34539  1.0000
  N   N75       1.0  0.38829  0.37901  0.34660  1.0000
  C   C112      1.0  0.60137  0.13977  0.33306  1.0000
  N   N76       1.0  0.59769  0.17009  0.34430  1.0000
  C   C113      1.0  0.60942  0.19181  0.35479  1.0000
  N   N77       1.0  0.62468  0.18152  0.35111  1.0000
  C   C114      1.0  0.62912  0.15264  0.33827  1.0000
  N   N78       1.0  0.61718  0.13231  0.32965  1.0000
  C   C115      1.0  0.06240  0.28126  0.33568  1.0000
  N   N79       1.0  0.04609  0.28133  0.33863  1.0000
  C   C116      1.0  0.03730  0.25514  0.33846  1.0000
  N   N80       1.0  0.04535  0.22820  0.33600  1.0000
  C   C117      1.0  0.06156  0.22635  0.33346  1.0000
  N   N81       1.0  0.06943  0.25338  0.33315  1.0000
  C   C118      1.0  0.94391  0.22687  0.33117  1.0000
  N   N82       1.0  0.96018  0.22646  0.33363  1.0000
  C   C119      1.0  0.96930  0.25220  0.33443  1.0000
  N   N83       1.0  0.96144  0.27940  0.33403  1.0000
  C   C120      1.0  0.94521  0.28170  0.33200  1.0000
  N   N84       1.0  0.93710  0.25492  0.33035  1.0000
  C   C121      1.0  0.56289  0.03311  0.32324  1.0000
  N   N85       1.0  0.54657  0.03383  0.32550  1.0000
  C   C122      1.0  0.53754  0.00795  0.32465  1.0000
  N   N86       1.0  0.54534  0.48074  0.32251  1.0000
  C   C123      1.0  0.56151  0.47827  0.32120  1.0000
  N   N87       1.0  0.56966  0.00499  0.32123  1.0000
  C   C124      1.0  0.44522  0.47462  0.33169  1.0000
  N   N88       1.0  0.46142  0.47637  0.32778  1.0000
  C   C125      1.0  0.46961  0.50318  0.32497  1.0000
  N   N89       1.0  0.46083  0.02942  0.32712  1.0000
  C   C126      1.0  0.44451  0.02950  0.33069  1.0000
  N   N90       1.0  0.43743  0.50169  0.33275  1.0000
  N   N91       1.0  0.24964  0.15692  0.35011  1.0000
  C   C127      1.0  0.26562  0.15214  0.34565  1.0000
  H   H31       1.0  0.27336  0.16822  0.36930  1.0000
  N   N92       1.0  0.75718  0.35312  0.34751  1.0000
  C   C128      1.0  0.74125  0.35833  0.34221  1.0000
  H   H32       1.0  0.73336  0.34228  0.36429  1.0000
  C   C129      1.0  0.76994  0.13883  0.37115  1.0000
  C   C130      1.0  0.73735  0.12238  0.37556  1.0000
  N   N93       1.0  0.74942  0.10242  0.39351  1.0000
  C   C131      1.0  0.76529  0.10879  0.39237  1.0000
  C   C132      1.0  0.77545  0.08568  0.41796  1.0000
  O   O25       1.0  0.78176  0.07166  0.35675  1.0000
  O   O26       1.0  0.78340  0.08732  0.48760  1.0000
  H   H33       1.0  0.78072  0.09828  0.53511  1.0000
  C   C133      1.0  0.23627  0.37043  0.37176  1.0000
  C   C134      1.0  0.26874  0.38747  0.37699  1.0000
  N   N94       1.0  0.25651  0.40748  0.39027  1.0000
  C   C135      1.0  0.24064  0.40093  0.38832  1.0000
  C   C136      1.0  0.22987  0.42372  0.40950  1.0000
  O   O27       1.0  0.23172  0.44827  0.37287  1.0000
  O   O28       1.0  0.22399  0.42501  0.48556  1.0000
  H   H34       1.0  0.22298  0.40944  0.52279  1.0000
  C   C137      1.0  0.30060  0.03756  0.38800  1.0000
  C   C138      1.0  0.30091  0.47484  0.38479  1.0000
  N   N95       1.0  0.28774  0.49035  0.41104  1.0000
  C   C139      1.0  0.28685  0.02097  0.41491  1.0000
  C   C140      1.0  0.27274  0.03367  0.44667  1.0000
  O   O29       1.0  0.26004  0.02195  0.42574  1.0000
  O   O30       1.0  0.27237  0.04819  0.51768  1.0000
  H   H35       1.0  0.28082  0.05585  0.54535  1.0000
  C   C141      1.0  0.70561  0.47306  0.38254  1.0000
  C   C142      1.0  0.70453  0.03589  0.38731  1.0000
  N   N96       1.0  0.71776  0.02046  0.41322  1.0000
  C   C143      1.0  0.71901  0.48986  0.41366  1.0000
  C   C144      1.0  0.73319  0.47738  0.44520  1.0000
  O   O31       1.0  0.74579  0.48943  0.42409  1.0000
  O   O32       1.0  0.73357  0.46243  0.51540  1.0000
  H   H36       1.0  0.72513  0.45441  0.54233  1.0000
  C   C145      1.0  0.80142  0.28932  0.39110  1.0000
  C   C146      1.0  0.80223  0.22654  0.38342  1.0000
  N   N97       1.0  0.78942  0.24144  0.41724  1.0000
  C   C147      1.0  0.78834  0.27198  0.42397  1.0000
  C   C148      1.0  0.77466  0.28392  0.46328  1.0000
  O   O33       1.0  0.76178  0.27197  0.44771  1.0000
  O   O34       1.0  0.77523  0.29832  0.53446  1.0000
  H   H37       1.0  0.78401  0.30615  0.55822  1.0000
  C   C149      1.0  0.20520  0.21977  0.39398  1.0000
  C   C150      1.0  0.20424  0.28248  0.38500  1.0000
  N   N98       1.0  0.21704  0.26780  0.41978  1.0000
  C   C151      1.0  0.21818  0.23728  0.42721  1.0000
  C   C152      1.0  0.23184  0.22548  0.46710  1.0000
  O   O35       1.0  0.24470  0.23767  0.45251  1.0000
  O   O36       1.0  0.23121  0.21085  0.53783  1.0000
  H   H38       1.0  0.22242  0.20284  0.56096  1.0000
  N   N99       1.0  0.33491  0.15192  0.35732  1.0000
  C   C153      1.0  0.35020  0.16229  0.36182  1.0000
  H   H39       1.0  0.35243  0.18254  0.39286  1.0000
  N   N100      1.0  0.67259  0.35828  0.35488  1.0000
  C   C154      1.0  0.65734  0.34769  0.36002  1.0000
  H   H40       1.0  0.65509  0.32844  0.39611  1.0000
  C   C155      1.0  0.67797  0.12901  0.34360  1.0000
  C   C156      1.0  0.64549  0.14498  0.33640  1.0000
  N   N101      1.0  0.65648  0.16222  0.38080  1.0000
  C   C157      1.0  0.67239  0.15584  0.38592  1.0000
  C   C158      1.0  0.68142  0.17384  0.44240  1.0000
  O   O37       1.0  0.68279  0.16439  0.51916  1.0000
  O   O38       1.0  0.69301  0.18834  0.41464  1.0000
  H   H41       1.0  0.69403  0.19503  0.35884  1.0000
  C   C159      1.0  0.32855  0.38242  0.38801  1.0000
  C   C160      1.0  0.36028  0.36546  0.35657  1.0000
  N   N102      1.0  0.35655  0.38746  0.41621  1.0000
  C   C161      1.0  0.34144  0.39638  0.43551  1.0000
  C   C162      1.0  0.33971  0.41856  0.50132  1.0000
  O   O39       1.0  0.34932  0.43941  0.50493  1.0000
  O   O40       1.0  0.33125  0.41503  0.56853  1.0000
  H   H42       1.0  0.32466  0.39961  0.57734  1.0000
  N   N103      1.0  0.83400  0.40011  0.38539  1.0000
  C   C163      1.0  0.84955  0.40871  0.39221  1.0000
  H   H43       1.0  0.85286  0.42316  0.44261  1.0000
  N   N104      1.0  0.17338  0.10626  0.36886  1.0000
  C   C164      1.0  0.15795  0.09680  0.37510  1.0000
  H   H44       1.0  0.15519  0.07938  0.41772  1.0000
  C   C165      1.0  0.17664  0.37470  0.34476  1.0000
  C   C166      1.0  0.14436  0.39243  0.33845  1.0000
  N   N105      1.0  0.15622  0.41198  0.36287  1.0000
  C   C167      1.0  0.17211  0.40488  0.36589  1.0000
  C   C168      1.0  0.18271  0.42630  0.39842  1.0000
  O   O41       1.0  0.18199  0.45178  0.36635  1.0000
  O   O42       1.0  0.18693  0.42582  0.47798  1.0000
  H   H45       1.0  0.18692  0.40950  0.51271  1.0000
  C   C169      1.0  0.82960  0.13393  0.34442  1.0000
  C   C170      1.0  0.86185  0.11593  0.33619  1.0000
  N   N106      1.0  0.84998  0.09645  0.36106  1.0000
  C   C171      1.0  0.83411  0.10370  0.36504  1.0000
  C   C172      1.0  0.82352  0.08232  0.39772  1.0000
  O   O43       1.0  0.82404  0.05699  0.36459  1.0000
  O   O44       1.0  0.81963  0.08247  0.47782  1.0000
  H   H46       1.0  0.81977  0.09865  0.51310  1.0000
  C   C173      1.0  0.07036  0.19875  0.33163  1.0000
  C   C174      1.0  0.09133  0.14765  0.32994  1.0000
  N   N107      1.0  0.07513  0.14474  0.33572  1.0000
  C   C175      1.0  0.06449  0.16837  0.33596  1.0000
  C   C176      1.0  0.04855  0.16051  0.34260  1.0000
  O   O45       1.0  0.04246  0.16338  0.41661  1.0000
  O   O46       1.0  0.03941  0.16374  0.27815  1.0000
  H   H47       1.0  0.04244  0.16398  0.22115  1.0000
  C   C177      1.0  0.93650  0.30945  0.33145  1.0000
  C   C178      1.0  0.91555  0.36061  0.33009  1.0000
  N   N108      1.0  0.93175  0.36343  0.33647  1.0000
  C   C179      1.0  0.94243  0.33976  0.33658  1.0000
  C   C180      1.0  0.95841  0.34650  0.34554  1.0000
  O   O47       1.0  0.96394  0.36688  0.29900  1.0000
  O   O48       1.0  0.96435  0.34188  0.42029  1.0000
  H   H48       1.0  0.97420  0.34711  0.43550  1.0000
  N   N109      1.0  0.94146  0.17196  0.33763  1.0000
  C   C181      1.0  0.93348  0.14480  0.33950  1.0000
  H   H49       1.0  0.93977  0.12505  0.34609  1.0000
  N   N110      1.0  0.06475  0.33624  0.34307  1.0000
  C   C182      1.0  0.07271  0.36344  0.34495  1.0000
  H   H50       1.0  0.06641  0.38317  0.35163  1.0000
  C   C183      1.0  0.56995  0.45026  0.32039  1.0000
  C   C184      1.0  0.59044  0.39846  0.32027  1.0000
  N   N111      1.0  0.57422  0.39610  0.32532  1.0000
  C   C185      1.0  0.56375  0.42012  0.32465  1.0000
  C   C186      1.0  0.54768  0.41382  0.33159  1.0000
  O   O49       1.0  0.54211  0.39403  0.28301  1.0000
  O   O50       1.0  0.54151  0.41813  0.40591  1.0000
  H   H51       1.0  0.53155  0.41315  0.41961  1.0000
  C   C187      1.0  0.43506  0.05640  0.33125  1.0000
  C   C188      1.0  0.41733  0.11189  0.33011  1.0000
  N   N112      1.0  0.41048  0.08392  0.33221  1.0000
  C   C189      1.0  0.41803  0.05672  0.33275  1.0000
  C   C190      1.0  0.40813  0.03157  0.33791  1.0000
  O   O51       1.0  0.39833  0.02829  0.27790  1.0000
  O   O52       1.0  0.40407  0.02143  0.41184  1.0000
  H   H52       1.0  0.40959  0.02367  0.46222  1.0000
  N   N113      1.0  0.42016  0.45024  0.33990  1.0000
  C   C191      1.0  0.40956  0.42713  0.34303  1.0000
  H   H53       1.0  0.39774  0.43268  0.34695  1.0000
  N   N114      1.0  0.56570  0.08787  0.33069  1.0000
  C   C192      1.0  0.57385  0.11483  0.33306  1.0000
  H   H54       1.0  0.56768  0.13470  0.33977  1.0000
  C   C193      1.0  0.10768  0.47314  0.36876  1.0000
  C   C194      1.0  0.10624  0.03799  0.36212  1.0000
  N   N115      1.0  0.11957  0.02201  0.38227  1.0000
  C   C195      1.0  0.12127  0.49173  0.38805  1.0000
  C   C196      1.0  0.13632  0.48263  0.41715  1.0000
  O   O53       1.0  0.14809  0.49235  0.37799  1.0000
  O   O54       1.0  0.13859  0.47366  0.49470  1.0000
  H   H55       1.0  0.13096  0.46772  0.53203  1.0000
  C   C197      1.0  0.89871  0.03523  0.36580  1.0000
  C   C198      1.0  0.90045  0.47034  0.36180  1.0000
  N   N116      1.0  0.88706  0.48624  0.38170  1.0000
  C   C199      1.0  0.88523  0.01652  0.38626  1.0000
  C   C200      1.0  0.87014  0.02553  0.41492  1.0000
  O   O55       1.0  0.85838  0.01534  0.37671  1.0000
  O   O56       1.0  0.86779  0.03471  0.49219  1.0000
  H   H56       1.0  0.87537  0.04099  0.52934  1.0000
  C   C201      1.0  0.60784  0.22392  0.36388  1.0000
  C   C202      1.0  0.60572  0.28866  0.35555  1.0000
  N   N117      1.0  0.61910  0.27323  0.37858  1.0000
  C   C203      1.0  0.62109  0.24304  0.38557  1.0000
  C   C204      1.0  0.63606  0.23448  0.41733  1.0000
  O   O57       1.0  0.64793  0.24491  0.38072  1.0000
  O   O58       1.0  0.63804  0.22553  0.49510  1.0000
  H   H57       1.0  0.63030  0.21915  0.53100  1.0000
  C   C205      1.0  0.39803  0.28678  0.34781  1.0000
  C   C206      1.0  0.40111  0.22199  0.34506  1.0000
  N   N118      1.0  0.38727  0.23705  0.35950  1.0000
  C   C207      1.0  0.38470  0.26708  0.36233  1.0000
  C   C208      1.0  0.36909  0.27442  0.38573  1.0000
  O   O59       1.0  0.35826  0.26485  0.33851  1.0000
  O   O60       1.0  0.36546  0.28006  0.46441  1.0000
  H   H58       1.0  0.37232  0.28552  0.50676  1.0000
  N   N119      1.0  0.99445  0.27802  0.34743  1.0000
  C   C209      1.0  0.01063  0.28096  0.34953  1.0000
  H   H59       1.0  0.01552  0.30196  0.35915  1.0000
  N   N120      1.0  0.49454  0.03008  0.34008  1.0000
  C   C210      1.0  0.51073  0.03343  0.34152  1.0000
  H   H60       1.0  0.51553  0.05413  0.35669  1.0000
  C   C211      1.0  0.23795  0.63666  0.32653  1.0000
  C   C212      1.0  0.27091  0.62358  0.31695  1.0000
  N   N121      1.0  0.25934  0.60327  0.29287  1.0000
  C   C213      1.0  0.24330  0.60827  0.29392  1.0000
  C   C214      1.0  0.23320  0.58541  0.26470  1.0000
  O   O61       1.0  0.23596  0.55964  0.29065  1.0000
  O   O62       1.0  0.22684  0.58703  0.18992  1.0000
  H   H61       1.0  0.22524  0.60403  0.15942  1.0000
  C   C215      1.0  0.76902  0.87331  0.32599  1.0000
  C   C216      1.0  0.73624  0.88732  0.31562  1.0000
  N   N122      1.0  0.74794  0.90752  0.29328  1.0000
  C   C217      1.0  0.76394  0.90208  0.29491  1.0000
  C   C218      1.0  0.77422  0.92480  0.26683  1.0000
  O   O63       1.0  0.77149  0.95072  0.29162  1.0000
  O   O64       1.0  0.78090  0.92322  0.19288  1.0000
  H   H62       1.0  0.78250  0.90626  0.16222  1.0000
  N   N123      1.0  0.75782  0.65882  0.35349  1.0000
  C   C219      1.0  0.74200  0.65216  0.35451  1.0000
  H   H63       1.0  0.73382  0.66861  0.33942  1.0000
  N   N124      1.0  0.24853  0.85034  0.35894  1.0000
  C   C220      1.0  0.26433  0.85724  0.36082  1.0000
  H   H64       1.0  0.27265  0.84067  0.34971  1.0000
  N   N125      1.0  0.31387  0.52190  0.36314  1.0000
  C   C221      1.0  0.31474  0.99137  0.36267  1.0000
  H   H65       1.0  0.32503  0.98108  0.34143  1.0000
  N   N126      1.0  0.69227  0.98853  0.35787  1.0000
  C   C222      1.0  0.69104  0.51904  0.36082  1.0000
  H   H66       1.0  0.68078  0.52916  0.33866  1.0000
  N   N127      1.0  0.81438  0.77433  0.35862  1.0000
  C   C223      1.0  0.81552  0.74379  0.35587  1.0000
  H   H67       1.0  0.82544  0.73404  0.32811  1.0000
  N   N128      1.0  0.19227  0.73458  0.36039  1.0000
  C   C224      1.0  0.19104  0.76507  0.35700  1.0000
  H   H68       1.0  0.18114  0.77465  0.32847  1.0000
  C   C225      1.0  0.33079  0.62506  0.31872  1.0000
  C   C226      1.0  0.36280  0.64378  0.33018  1.0000
  N   N129      1.0  0.35863  0.61735  0.29034  1.0000
  C   C227      1.0  0.34339  0.60716  0.28176  1.0000
  C   C228      1.0  0.34117  0.58009  0.23534  1.0000
  O   O65       1.0  0.35090  0.55966  0.24501  1.0000
  O   O66       1.0  0.33303  0.57871  0.16619  1.0000
  H   H69       1.0  0.32648  0.59309  0.14697  1.0000
  C   C229      1.0  0.67668  0.88412  0.31048  1.0000
  C   C230      1.0  0.64479  0.86521  0.32346  1.0000
  N   N130      1.0  0.64897  0.89062  0.27806  1.0000
  C   C231      1.0  0.66418  0.90082  0.26808  1.0000
  C   C232      1.0  0.66649  0.92670  0.21691  1.0000
  O   O67       1.0  0.65601  0.94612  0.21414  1.0000
  O   O68       1.0  0.67634  0.92528  0.15514  1.0000
  H   H70       1.0  0.67807  0.94001  0.11585  1.0000
  N   N131      1.0  0.66685  0.61205  0.29921  1.0000
  C   C233      1.0  0.65116  0.61887  0.29259  1.0000
  H   H71       1.0  0.64370  0.60455  0.25838  1.0000
  N   N132      1.0  0.33228  0.85969  0.32985  1.0000
  C   C234      1.0  0.34748  0.84984  0.31552  1.0000
  H   H72       1.0  0.34950  0.83290  0.27000  1.0000
  C   C235      1.0  0.82848  0.88073  0.32142  1.0000
  C   C236      1.0  0.86103  0.89486  0.33605  1.0000
  N   N133      1.0  0.85559  0.87542  0.27239  1.0000
  C   C237      1.0  0.83993  0.86797  0.26187  1.0000
  C   C238      1.0  0.83578  0.84864  0.19254  1.0000
  O   O69       1.0  0.83176  0.86089  0.12253  1.0000
  O   O70       1.0  0.84240  0.82385  0.18256  1.0000
  H   H73       1.0  0.84644  0.81294  0.22707  1.0000
  C   C239      1.0  0.17817  0.62955  0.31534  1.0000
  C   C240      1.0  0.14586  0.61332  0.33034  1.0000
  N   N134      1.0  0.15068  0.63638  0.27656  1.0000
  C   C241      1.0  0.16615  0.64508  0.26552  1.0000
  C   C242      1.0  0.16937  0.66867  0.20627  1.0000
  O   O71       1.0  0.17828  0.66283  0.14362  1.0000
  O   O72       1.0  0.15993  0.68974  0.19282  1.0000
  H   H74       1.0  0.15275  0.69609  0.23220  1.0000
  N   N135      1.0  0.16462  0.85563  0.31942  1.0000
  C   C243      1.0  0.14901  0.86294  0.31411  1.0000
  H   H75       1.0  0.14094  0.84666  0.29561  1.0000
  N   N136      1.0  0.84162  0.65292  0.31870  1.0000
  C   C244      1.0  0.85721  0.64550  0.31252  1.0000
  H   H76       1.0  0.86527  0.66175  0.29373  1.0000
  N   N137      1.0  0.08652  0.70134  0.32578  1.0000
  C   C245      1.0  0.09696  0.67790  0.32406  1.0000
  H   H77       1.0  0.10885  0.68298  0.32017  1.0000
  N   N138      1.0  0.92035  0.80696  0.32499  1.0000
  C   C246      1.0  0.90992  0.83039  0.32349  1.0000
  H   H78       1.0  0.89803  0.82532  0.31913  1.0000
  C   C247      1.0  0.93445  0.69998  0.33028  1.0000
  C   C248      1.0  0.91664  0.64451  0.33376  1.0000
  N   N139      1.0  0.90994  0.67253  0.32563  1.0000
  C   C249      1.0  0.91749  0.69973  0.32365  1.0000
  C   C250      1.0  0.90782  0.72476  0.31217  1.0000
  O   O73       1.0  0.89670  0.72808  0.36485  1.0000
  O   O74       1.0  0.90649  0.73446  0.23479  1.0000
  H   H79       1.0  0.89980  0.74907  0.21882  1.0000
  C   C251      1.0  0.07179  0.80824  0.33549  1.0000
  C   C252      1.0  0.08955  0.86381  0.33879  1.0000
  N   N140      1.0  0.09627  0.83581  0.33069  1.0000
  C   C253      1.0  0.08876  0.80860  0.32892  1.0000
  C   C254      1.0  0.09858  0.78356  0.31754  1.0000
  O   O75       1.0  0.10916  0.77970  0.37289  1.0000
  O   O76       1.0  0.10151  0.77385  0.24148  1.0000
  H   H80       1.0  0.09534  0.77658  0.19383  1.0000
  N   N141      1.0  0.58613  0.95231  0.31516  1.0000
  C   C255      1.0  0.59633  0.92855  0.31413  1.0000
  H   H81       1.0  0.60826  0.93333  0.31073  1.0000
  N   N142      1.0  0.44215  0.58442  0.32945  1.0000
  C   C256      1.0  0.43420  0.61161  0.32928  1.0000
  H   H82       1.0  0.44055  0.63141  0.32817  1.0000
  C   C257      1.0  0.43629  0.94718  0.33451  1.0000
  C   C258      1.0  0.41495  0.89663  0.34050  1.0000
  N   N143      1.0  0.43112  0.89322  0.33504  1.0000
  C   C259      1.0  0.44191  0.91665  0.33214  1.0000
  C   C260      1.0  0.45787  0.90923  0.32565  1.0000
  O   O77       1.0  0.46459  0.90332  0.39630  1.0000
  O   O78       1.0  0.46288  0.89461  0.26069  1.0000
  H   H83       1.0  0.45879  0.89558  0.20589  1.0000
  C   C261      1.0  0.57255  0.55973  0.32332  1.0000
  C   C262      1.0  0.59070  0.61471  0.32790  1.0000
  N   N144      1.0  0.59729  0.58662  0.31984  1.0000
  C   C263      1.0  0.58954  0.55963  0.31734  1.0000
  C   C264      1.0  0.59913  0.53429  0.30639  1.0000
  O   O79       1.0  0.60980  0.53015  0.36102  1.0000
  O   O80       1.0  0.60194  0.52406  0.23073  1.0000
  H   H84       1.0  0.59580  0.52689  0.18299  1.0000
  N   N145      1.0  0.09378  0.98875  0.35274  1.0000
  C   C265      1.0  0.09243  0.51986  0.35101  1.0000
  H   H85       1.0  0.08169  0.52958  0.33549  1.0000
  N   N146      1.0  0.91265  0.51975  0.34991  1.0000
  C   C266      1.0  0.91416  0.98865  0.34942  1.0000
  H   H86       1.0  0.92490  0.97905  0.33357  1.0000
  N   N147      1.0  0.59387  0.73893  0.34510  1.0000
  C   C267      1.0  0.59217  0.76998  0.34271  1.0000
  H   H87       1.0  0.58144  0.77923  0.32490  1.0000
  N   N148      1.0  0.41241  0.77229  0.33630  1.0000
  C   C268      1.0  0.41452  0.74129  0.33570  1.0000
  H   H88       1.0  0.42562  0.73244  0.32457  1.0000
  C   C269      1.0  0.98643  0.75137  0.33517  1.0000
  C   C270      1.0  0.02027  0.75497  0.33877  1.0000
  N   N149      1.0  0.01232  0.72841  0.32589  1.0000
  C   C271      1.0  0.99613  0.72509  0.32374  1.0000
  C   C272      1.0  0.99028  0.69638  0.30504  1.0000
  O   O81       1.0  0.99573  0.67506  0.34760  1.0000
  O   O82       1.0  0.98586  0.68970  0.22831  1.0000
  H   H89       1.0  0.98276  0.70290  0.18696  1.0000
  C   C273      1.0  0.48673  0.50360  0.32158  1.0000
  C   C274      1.0  0.52053  0.50805  0.32430  1.0000
  N   N150      1.0  0.51275  0.48186  0.30457  1.0000
  C   C275      1.0  0.49663  0.47813  0.30212  1.0000
  C   C276      1.0  0.49116  0.45002  0.27404  1.0000
  O   O83       1.0  0.49725  0.42755  0.30776  1.0000
  O   O84       1.0  0.48629  0.44651  0.19633  1.0000
  H   H90       1.0  0.48257  0.46115  0.16134  1.0000
  C   C277      1.0  0.31516  0.61335  0.33249  1.0000
  N   N151      1.0  0.30092  0.62822  0.31947  1.0000
  C   C278      1.0  0.28671  0.61296  0.32888  1.0000
  N   N152      1.0  0.28726  0.58363  0.35426  1.0000
  C   C279      1.0  0.30089  0.56882  0.37197  1.0000
  N   N153      1.0  0.31468  0.58393  0.35881  1.0000
  C   C280      1.0  0.69204  0.89668  0.32515  1.0000
  N   N154      1.0  0.70642  0.88220  0.31456  1.0000
  C   C281      1.0  0.72042  0.89794  0.32514  1.0000
  N   N155      1.0  0.71956  0.92738  0.34939  1.0000
  C   C282      1.0  0.70570  0.94185  0.36466  1.0000
  N   N156      1.0  0.69209  0.92624  0.35034  1.0000
  C   C283      1.0  0.69306  0.61504  0.35698  1.0000
  N   N157      1.0  0.70778  0.62864  0.36140  1.0000
  C   C284      1.0  0.72134  0.61179  0.37544  1.0000
  N   N158      1.0  0.71966  0.58146  0.38543  1.0000
  C   C285      1.0  0.70538  0.56745  0.38213  1.0000
  N   N159      1.0  0.69235  0.58453  0.36695  1.0000
  C   C286      1.0  0.31314  0.89577  0.38359  1.0000
  N   N160      1.0  0.29854  0.88164  0.37981  1.0000
  C   C287      1.0  0.28468  0.89838  0.37885  1.0000
  N   N161      1.0  0.28593  0.92899  0.38069  1.0000
  C   C288      1.0  0.30010  0.94335  0.38142  1.0000
  N   N162      1.0  0.31340  0.92641  0.38221  1.0000
  C   C289      1.0  0.81354  0.86678  0.33629  1.0000
  N   N163      1.0  0.79887  0.88001  0.32539  1.0000
  C   C290      1.0  0.78513  0.86362  0.33808  1.0000
  N   N164      1.0  0.78680  0.83429  0.36249  1.0000
  C   C291      1.0  0.80097  0.82071  0.37612  1.0000
  N   N165      1.0  0.81429  0.83715  0.36047  1.0000
  C   C292      1.0  0.19326  0.64294  0.33242  1.0000
  N   N166      1.0  0.20799  0.62975  0.32224  1.0000
  C   C293      1.0  0.22173  0.64594  0.33809  1.0000
  N   N167      1.0  0.21999  0.67502  0.36485  1.0000
  C   C294      1.0  0.20580  0.68847  0.37832  1.0000
  N   N168      1.0  0.19256  0.67223  0.35975  1.0000
  C   C295      1.0  0.19197  0.86111  0.35480  1.0000
  N   N169      1.0  0.20657  0.87517  0.35852  1.0000
  C   C296      1.0  0.22041  0.85885  0.36954  1.0000
  N   N170      1.0  0.21914  0.82839  0.37852  1.0000
  C   C297      1.0  0.20499  0.81390  0.37616  1.0000
  N   N171      1.0  0.19173  0.83054  0.36370  1.0000
  C   C298      1.0  0.81429  0.64765  0.35498  1.0000
  N   N172      1.0  0.79965  0.63374  0.35882  1.0000
  C   C299      1.0  0.78585  0.65019  0.36945  1.0000
  N   N173      1.0  0.78720  0.68068  0.37783  1.0000
  C   C300      1.0  0.80139  0.69506  0.37542  1.0000
  N   N174      1.0  0.81460  0.67824  0.36334  1.0000
  C   C301      1.0  0.10194  0.62246  0.33325  1.0000
  N   N175      1.0  0.09747  0.59256  0.34384  1.0000
  C   C302      1.0  0.10859  0.56980  0.35331  1.0000
  N   N176      1.0  0.12423  0.57837  0.35042  1.0000
  C   C303      1.0  0.12935  0.60693  0.33745  1.0000
  N   N177      1.0  0.11793  0.62843  0.32883  1.0000
  C   C304      1.0  0.90493  0.88578  0.33402  1.0000
  N   N178      1.0  0.90936  0.91574  0.34406  1.0000
  C   C305      1.0  0.89823  0.93844  0.35430  1.0000
  N   N179      1.0  0.88262  0.92969  0.35340  1.0000
  C   C306      1.0  0.87754  0.90108  0.34133  1.0000
  N   N180      1.0  0.88894  0.87965  0.33114  1.0000
  C   C307      1.0  0.90601  0.61933  0.33761  1.0000
  N   N181      1.0  0.90940  0.58884  0.34807  1.0000
  C   C308      1.0  0.89744  0.56738  0.35605  1.0000
  N   N182      1.0  0.88226  0.57810  0.35042  1.0000
  C   C309      1.0  0.87809  0.60717  0.33859  1.0000
  N   N183      1.0  0.89027  0.62707  0.33304  1.0000
  C   C310      1.0  0.10019  0.88899  0.34213  1.0000
  N   N184      1.0  0.09684  0.91951  0.35240  1.0000
  C   C311      1.0  0.10882  0.94094  0.35975  1.0000
  N   N185      1.0  0.12398  0.93017  0.35346  1.0000
  C   C312      1.0  0.12812  0.90110  0.34173  1.0000
  N   N186      1.0  0.11592  0.88122  0.33694  1.0000
  C   C313      1.0  0.60091  0.87304  0.32465  1.0000
  N   N187      1.0  0.59657  0.84306  0.33545  1.0000
  C   C314      1.0  0.60781  0.82052  0.34589  1.0000
  N   N188      1.0  0.62342  0.82935  0.34336  1.0000
  C   C315      1.0  0.62839  0.85796  0.33012  1.0000
  N   N189      1.0  0.61686  0.87914  0.32104  1.0000
  C   C316      1.0  0.40687  0.63729  0.33140  1.0000
  N   N190      1.0  0.41094  0.66760  0.33567  1.0000
  C   C317      1.0  0.39945  0.68988  0.34126  1.0000
  N   N191      1.0  0.38396  0.68030  0.34105  1.0000
  C   C318      1.0  0.37920  0.65133  0.33491  1.0000
  N   N192      1.0  0.39096  0.63042  0.32998  1.0000
  C   C319      1.0  0.40411  0.87177  0.34247  1.0000
  N   N193      1.0  0.40793  0.84124  0.34131  1.0000
  C   C320      1.0  0.39634  0.81900  0.34408  1.0000
  N   N194      1.0  0.38105  0.82914  0.34448  1.0000
  C   C321      1.0  0.37650  0.85820  0.34539  1.0000
  N   N195      1.0  0.38829  0.87901  0.34660  1.0000
  C   C322      1.0  0.60137  0.63977  0.33306  1.0000
  N   N196      1.0  0.59769  0.67009  0.34430  1.0000
  C   C323      1.0  0.60942  0.69181  0.35479  1.0000
  N   N197      1.0  0.62468  0.68152  0.35111  1.0000
  C   C324      1.0  0.62912  0.65264  0.33827  1.0000
  N   N198      1.0  0.61718  0.63231  0.32965  1.0000
  C   C325      1.0  0.06240  0.78126  0.33568  1.0000
  N   N199      1.0  0.04609  0.78133  0.33863  1.0000
  C   C326      1.0  0.03730  0.75514  0.33846  1.0000
  N   N200      1.0  0.04535  0.72821  0.33600  1.0000
  C   C327      1.0  0.06156  0.72635  0.33346  1.0000
  N   N201      1.0  0.06943  0.75337  0.33315  1.0000
  C   C328      1.0  0.94391  0.72686  0.33117  1.0000
  N   N202      1.0  0.96018  0.72646  0.33363  1.0000
  C   C329      1.0  0.96930  0.75220  0.33443  1.0000
  N   N203      1.0  0.96144  0.77940  0.33403  1.0000
  C   C330      1.0  0.94521  0.78170  0.33200  1.0000
  N   N204      1.0  0.93710  0.75492  0.33035  1.0000
  C   C331      1.0  0.56289  0.53311  0.32324  1.0000
  N   N205      1.0  0.54657  0.53383  0.32550  1.0000
  C   C332      1.0  0.53754  0.50795  0.32465  1.0000
  N   N206      1.0  0.54534  0.98074  0.32251  1.0000
  C   C333      1.0  0.56151  0.97826  0.32120  1.0000
  N   N207      1.0  0.56966  0.50499  0.32123  1.0000
  C   C334      1.0  0.44522  0.97462  0.33169  1.0000
  N   N208      1.0  0.46142  0.97637  0.32778  1.0000
  C   C335      1.0  0.46961  0.00318  0.32497  1.0000
  N   N209      1.0  0.46083  0.52942  0.32712  1.0000
  C   C336      1.0  0.44451  0.52949  0.33069  1.0000
  N   N210      1.0  0.43743  0.00169  0.33275  1.0000
  N   N211      1.0  0.24964  0.65692  0.35011  1.0000
  C   C337      1.0  0.26562  0.65214  0.34565  1.0000
  H   H91       1.0  0.27336  0.66822  0.36930  1.0000
  N   N212      1.0  0.75718  0.85312  0.34751  1.0000
  C   C338      1.0  0.74125  0.85833  0.34221  1.0000
  H   H92       1.0  0.73336  0.84228  0.36429  1.0000
  C   C339      1.0  0.76994  0.63883  0.37115  1.0000
  C   C340      1.0  0.73735  0.62238  0.37556  1.0000
  N   N213      1.0  0.74942  0.60242  0.39351  1.0000
  C   C341      1.0  0.76529  0.60879  0.39237  1.0000
  C   C342      1.0  0.77545  0.58568  0.41796  1.0000
  O   O85       1.0  0.78176  0.57166  0.35675  1.0000
  O   O86       1.0  0.78340  0.58732  0.48760  1.0000
  H   H93       1.0  0.78072  0.59828  0.53511  1.0000
  C   C343      1.0  0.23627  0.87043  0.37176  1.0000
  C   C344      1.0  0.26874  0.88747  0.37699  1.0000
  N   N214      1.0  0.25651  0.90748  0.39027  1.0000
  C   C345      1.0  0.24064  0.90093  0.38832  1.0000
  C   C346      1.0  0.22987  0.92372  0.40950  1.0000
  O   O87       1.0  0.23172  0.94827  0.37287  1.0000
  O   O88       1.0  0.22399  0.92501  0.48556  1.0000
  H   H94       1.0  0.22298  0.90944  0.52279  1.0000
  C   C347      1.0  0.30060  0.53756  0.38800  1.0000
  C   C348      1.0  0.30091  0.97483  0.38479  1.0000
  N   N215      1.0  0.28774  0.99035  0.41104  1.0000
  C   C349      1.0  0.28685  0.52097  0.41491  1.0000
  C   C350      1.0  0.27274  0.53366  0.44667  1.0000
  O   O89       1.0  0.26004  0.52195  0.42574  1.0000
  O   O90       1.0  0.27237  0.54819  0.51768  1.0000
  H   H95       1.0  0.28082  0.55585  0.54535  1.0000
  C   C351      1.0  0.70561  0.97306  0.38254  1.0000
  C   C352      1.0  0.70453  0.53589  0.38731  1.0000
  N   N216      1.0  0.71776  0.52046  0.41322  1.0000
  C   C353      1.0  0.71901  0.98986  0.41366  1.0000
  C   C354      1.0  0.73319  0.97738  0.44520  1.0000
  O   O91       1.0  0.74579  0.98943  0.42409  1.0000
  O   O92       1.0  0.73357  0.96243  0.51540  1.0000
  H   H96       1.0  0.72513  0.95441  0.54233  1.0000
  C   C355      1.0  0.80142  0.78933  0.39110  1.0000
  C   C356      1.0  0.80223  0.72654  0.38342  1.0000
  N   N217      1.0  0.78942  0.74143  0.41724  1.0000
  C   C357      1.0  0.78834  0.77198  0.42397  1.0000
  C   C358      1.0  0.77466  0.78392  0.46328  1.0000
  O   O93       1.0  0.76178  0.77196  0.44771  1.0000
  O   O94       1.0  0.77523  0.79832  0.53446  1.0000
  H   H97       1.0  0.78401  0.80615  0.55822  1.0000
  C   C359      1.0  0.20520  0.71977  0.39398  1.0000
  C   C360      1.0  0.20424  0.78248  0.38500  1.0000
  N   N218      1.0  0.21704  0.76780  0.41978  1.0000
  C   C361      1.0  0.21818  0.73728  0.42721  1.0000
  C   C362      1.0  0.23184  0.72548  0.46710  1.0000
  O   O95       1.0  0.24470  0.73767  0.45251  1.0000
  O   O96       1.0  0.23121  0.71085  0.53783  1.0000
  H   H98       1.0  0.22242  0.70284  0.56096  1.0000
  N   N219      1.0  0.33491  0.65192  0.35732  1.0000
  C   C363      1.0  0.35020  0.66229  0.36182  1.0000
  H   H99       1.0  0.35243  0.68254  0.39286  1.0000
  N   N220      1.0  0.67259  0.85828  0.35488  1.0000
  C   C364      1.0  0.65734  0.84770  0.36002  1.0000
  H   H100      1.0  0.65509  0.82844  0.39611  1.0000
  C   C365      1.0  0.67797  0.62901  0.34360  1.0000
  C   C366      1.0  0.64549  0.64497  0.33640  1.0000
  N   N221      1.0  0.65648  0.66222  0.38080  1.0000
  C   C367      1.0  0.67239  0.65584  0.38592  1.0000
  C   C368      1.0  0.68142  0.67384  0.44240  1.0000
  O   O97       1.0  0.68279  0.66439  0.51916  1.0000
  O   O98       1.0  0.69301  0.68834  0.41464  1.0000
  H   H101      1.0  0.69403  0.69503  0.35884  1.0000
  C   C369      1.0  0.32855  0.88242  0.38801  1.0000
  C   C370      1.0  0.36028  0.86546  0.35657  1.0000
  N   N222      1.0  0.35655  0.88746  0.41621  1.0000
  C   C371      1.0  0.34144  0.89638  0.43551  1.0000
  C   C372      1.0  0.33971  0.91856  0.50132  1.0000
  O   O99       1.0  0.34932  0.93941  0.50493  1.0000
  O   O100      1.0  0.33125  0.91503  0.56853  1.0000
  H   H102      1.0  0.32466  0.89961  0.57734  1.0000
  N   N223      1.0  0.83400  0.90011  0.38539  1.0000
  C   C373      1.0  0.84955  0.90871  0.39221  1.0000
  H   H103      1.0  0.85286  0.92316  0.44261  1.0000
  N   N224      1.0  0.17338  0.60626  0.36886  1.0000
  C   C374      1.0  0.15795  0.59680  0.37510  1.0000
  H   H104      1.0  0.15519  0.57938  0.41772  1.0000
  C   C375      1.0  0.17664  0.87470  0.34476  1.0000
  C   C376      1.0  0.14436  0.89243  0.33845  1.0000
  N   N225      1.0  0.15622  0.91198  0.36287  1.0000
  C   C377      1.0  0.17211  0.90488  0.36589  1.0000
  C   C378      1.0  0.18271  0.92630  0.39842  1.0000
  O   O101      1.0  0.18199  0.95178  0.36635  1.0000
  O   O102      1.0  0.18693  0.92582  0.47798  1.0000
  H   H105      1.0  0.18692  0.90950  0.51271  1.0000
  C   C379      1.0  0.82960  0.63393  0.34442  1.0000
  C   C380      1.0  0.86185  0.61593  0.33619  1.0000
  N   N226      1.0  0.84998  0.59645  0.36106  1.0000
  C   C381      1.0  0.83411  0.60370  0.36504  1.0000
  C   C382      1.0  0.82352  0.58232  0.39772  1.0000
  O   O103      1.0  0.82404  0.55699  0.36459  1.0000
  O   O104      1.0  0.81963  0.58247  0.47782  1.0000
  H   H106      1.0  0.81977  0.59865  0.51310  1.0000
  C   C383      1.0  0.07036  0.69875  0.33163  1.0000
  C   C384      1.0  0.09133  0.64765  0.32994  1.0000
  N   N227      1.0  0.07513  0.64474  0.33572  1.0000
  C   C385      1.0  0.06449  0.66837  0.33596  1.0000
  C   C386      1.0  0.04855  0.66051  0.34260  1.0000
  O   O105      1.0  0.04246  0.66339  0.41661  1.0000
  O   O106      1.0  0.03941  0.66374  0.27815  1.0000
  H   H107      1.0  0.04244  0.66398  0.22115  1.0000
  C   C387      1.0  0.93650  0.80944  0.33145  1.0000
  C   C388      1.0  0.91555  0.86061  0.33009  1.0000
  N   N228      1.0  0.93175  0.86343  0.33647  1.0000
  C   C389      1.0  0.94243  0.83976  0.33658  1.0000
  C   C390      1.0  0.95841  0.84650  0.34554  1.0000
  O   O107      1.0  0.96394  0.86688  0.29900  1.0000
  O   O108      1.0  0.96435  0.84188  0.42029  1.0000
  H   H108      1.0  0.97420  0.84712  0.43550  1.0000
  N   N229      1.0  0.94146  0.67196  0.33763  1.0000
  C   C391      1.0  0.93348  0.64480  0.33950  1.0000
  H   H109      1.0  0.93977  0.62504  0.34609  1.0000
  N   N230      1.0  0.06475  0.83624  0.34307  1.0000
  C   C392      1.0  0.07271  0.86344  0.34495  1.0000
  H   H110      1.0  0.06641  0.88317  0.35163  1.0000
  C   C393      1.0  0.56995  0.95025  0.32039  1.0000
  C   C394      1.0  0.59044  0.89846  0.32027  1.0000
  N   N231      1.0  0.57422  0.89610  0.32532  1.0000
  C   C395      1.0  0.56375  0.92011  0.32465  1.0000
  C   C396      1.0  0.54768  0.91382  0.33159  1.0000
  O   O109      1.0  0.54211  0.89403  0.28301  1.0000
  O   O110      1.0  0.54151  0.91813  0.40591  1.0000
  H   H111      1.0  0.53155  0.91315  0.41961  1.0000
  C   C397      1.0  0.43506  0.55640  0.33125  1.0000
  C   C398      1.0  0.41733  0.61189  0.33011  1.0000
  N   N232      1.0  0.41048  0.58392  0.33221  1.0000
  C   C399      1.0  0.41803  0.55672  0.33275  1.0000
  C   C400      1.0  0.40813  0.53157  0.33791  1.0000
  O   O111      1.0  0.39833  0.52829  0.27790  1.0000
  O   O112      1.0  0.40407  0.52143  0.41184  1.0000
  H   H112      1.0  0.40959  0.52367  0.46222  1.0000
  N   N233      1.0  0.42016  0.95024  0.33990  1.0000
  C   C401      1.0  0.40956  0.92713  0.34303  1.0000
  H   H113      1.0  0.39774  0.93268  0.34695  1.0000
  N   N234      1.0  0.56570  0.58787  0.33069  1.0000
  C   C402      1.0  0.57385  0.61482  0.33306  1.0000
  H   H114      1.0  0.56768  0.63470  0.33977  1.0000
  C   C403      1.0  0.10768  0.97314  0.36876  1.0000
  C   C404      1.0  0.10624  0.53799  0.36212  1.0000
  N   N235      1.0  0.11957  0.52201  0.38227  1.0000
  C   C405      1.0  0.12127  0.99173  0.38805  1.0000
  C   C406      1.0  0.13632  0.98263  0.41715  1.0000
  O   O113      1.0  0.14809  0.99235  0.37799  1.0000
  O   O114      1.0  0.13859  0.97366  0.49470  1.0000
  H   H115      1.0  0.13096  0.96772  0.53203  1.0000
  C   C407      1.0  0.89871  0.53523  0.36580  1.0000
  C   C408      1.0  0.90045  0.97034  0.36180  1.0000
  N   N236      1.0  0.88706  0.98624  0.38170  1.0000
  C   C409      1.0  0.88523  0.51652  0.38626  1.0000
  C   C410      1.0  0.87014  0.52553  0.41492  1.0000
  O   O115      1.0  0.85838  0.51534  0.37671  1.0000
  O   O116      1.0  0.86779  0.53471  0.49219  1.0000
  H   H116      1.0  0.87537  0.54098  0.52934  1.0000
  C   C411      1.0  0.60784  0.72392  0.36388  1.0000
  C   C412      1.0  0.60572  0.78866  0.35555  1.0000
  N   N237      1.0  0.61910  0.77323  0.37858  1.0000
  C   C413      1.0  0.62109  0.74304  0.38557  1.0000
  C   C414      1.0  0.63606  0.73448  0.41733  1.0000
  O   O117      1.0  0.64793  0.74491  0.38072  1.0000
  O   O118      1.0  0.63804  0.72553  0.49510  1.0000
  H   H117      1.0  0.63030  0.71915  0.53100  1.0000
  C   C415      1.0  0.39803  0.78678  0.34781  1.0000
  C   C416      1.0  0.40111  0.72199  0.34506  1.0000
  N   N238      1.0  0.38727  0.73705  0.35950  1.0000
  C   C417      1.0  0.38470  0.76707  0.36233  1.0000
  C   C418      1.0  0.36909  0.77443  0.38573  1.0000
  O   O119      1.0  0.35826  0.76485  0.33851  1.0000
  O   O120      1.0  0.36546  0.78006  0.46441  1.0000
  H   H118      1.0  0.37232  0.78552  0.50676  1.0000
  N   N239      1.0  0.99445  0.77802  0.34743  1.0000
  C   C419      1.0  0.01063  0.78096  0.34953  1.0000
  H   H119      1.0  0.01552  0.80196  0.35915  1.0000
  N   N240      1.0  0.49454  0.53008  0.34008  1.0000
  C   C420      1.0  0.51073  0.53343  0.34152  1.0000
  H   H120      1.0  0.51553  0.55413  0.35669  1.0000
