data_image0
_chemical_formula_structural       C3HOHC3HOHC3HOHC3HOHC3OH2C3OH2C3HOHC3HOHC3OH2C3OH2C3HOHC3HOHC3HOHC3HOHC3OH2C3OH2C3OH2C3OH2CNCNCNCNCNCNCNCNCNCNCNCNCNCNCNCNCNCNCNCNCNCNCNCNCNCNCNCNCNCNCNCNCNCNCNCNC3OH2C3OH2C3OH2C3OH2C3HOHC3HOHC3OH2C3OH2C3HOHC3HOHC3OH2C3OH2C3OH2C3OH2C3HOHC3HOHC3HOHC3HOHC3HOHC3HOHC3HOHC3HOHC3OH2C3OH2C3HOHC3HOHC3OH2C3OH2C3HOHC3HOHC3HOHC3HOHC3OH2C3OH2C3OH2C3OH2CNCNCNCNCNCNCNCNCNCNCNCNCNCNCNCNCNCNCNCNCNCNCNCNCNCNCNCNCNCNCNCNCNCNCNCNC3OH2C3OH2C3OH2C3OH2C3HOHC3HOHC3OH2C3OH2C3HOHC3HOHC3OH2C3OH2C3OH2C3OH2C3HOHC3HOHC3HOHC3HOH
_chemical_formula_sum              "C288 H144 O72 N72"
_cell_length_a       42.6586
_cell_length_b       55.3051
_cell_length_c       14.9429
_cell_angle_alpha    90
_cell_angle_beta     90
_cell_angle_gamma    90

_space_group_name_H-M_alt    "P 1"
_space_group_IT_number       1

loop_
  _space_group_symop_operation_xyz
  'x, y, z'

loop_
  _atom_site_type_symbol
  _atom_site_label
  _atom_site_symmetry_multiplicity
  _atom_site_fract_x
  _atom_site_fract_y
  _atom_site_fract_z
  _atom_site_occupancy
  C   C1        1.0  0.23421  0.15044  0.34081  1.0000
  C   C2        1.0  0.26754  0.14980  0.34161  1.0000
  C   C3        1.0  0.28527  0.17107  0.35869  1.0000
  H   H1        1.0  0.22229  0.13501  0.32411  1.0000
  O   O1        1.0  0.28204  0.12855  0.32182  1.0000
  H   H2        1.0  0.28503  0.12843  0.25655  1.0000
  C   C4        1.0  0.27038  0.81175  0.29225  1.0000
  C   C5        1.0  0.23765  0.81099  0.29386  1.0000
  C   C6        1.0  0.21980  0.83199  0.31489  1.0000
  H   H3        1.0  0.28128  0.79600  0.27411  1.0000
  O   O2        1.0  0.22490  0.78962  0.26562  1.0000
  H   H4        1.0  0.22674  0.77814  0.31574  1.0000
  C   C7        1.0  0.48543  0.68660  0.25077  1.0000
  C   C8        1.0  0.01818  0.68789  0.25364  1.0000
  C   C9        1.0  0.03602  0.66902  0.29333  1.0000
  H   H5        1.0  0.47406  0.70080  0.22093  1.0000
  O   O3        1.0  0.03156  0.70722  0.21136  1.0000
  H   H6        1.0  0.02569  0.72182  0.24520  1.0000
  C   C10       1.0  0.01761  0.31727  0.25983  1.0000
  C   C11       1.0  0.48482  0.31637  0.26156  1.0000
  C   C12       1.0  0.46718  0.33527  0.30183  1.0000
  H   H7        1.0  0.02882  0.30305  0.22963  1.0000
  O   O4        1.0  0.47109  0.29747  0.21747  1.0000
  H   H8        1.0  0.47687  0.28255  0.24942  1.0000
  C   C13       1.0  0.08646  0.10012  0.33793  1.0000
  C   C14       1.0  0.11218  0.11646  0.33511  1.0000
  C   C15       1.0  0.10739  0.14193  0.33385  1.0000
  O   O5        1.0  0.14159  0.10696  0.33488  1.0000
  H   H9        1.0  0.09105  0.08195  0.33984  1.0000
  H   H10       1.0  0.14739  0.10495  0.27161  1.0000
  C   C16       1.0  0.45414  0.87177  0.36111  1.0000
  C   C17       1.0  0.43007  0.85461  0.36484  1.0000
  C   C18       1.0  0.39830  0.86129  0.34972  1.0000
  O   O6        1.0  0.43986  0.83165  0.38201  1.0000
  H   H11       1.0  0.47633  0.86550  0.37301  1.0000
  H   H12       1.0  0.43906  0.82976  0.44744  1.0000
  C   C19       1.0  0.38960  0.11627  0.34461  1.0000
  C   C20       1.0  0.41414  0.09886  0.34473  1.0000
  C   C21       1.0  0.44535  0.10562  0.36647  1.0000
  H   H13       1.0  0.36767  0.11085  0.32526  1.0000
  O   O7        1.0  0.40732  0.07582  0.31949  1.0000
  H   H14       1.0  0.40974  0.07530  0.25405  1.0000
  C   C22       1.0  0.07978  0.85644  0.28222  1.0000
  C   C23       1.0  0.05432  0.87248  0.27966  1.0000
  C   C24       1.0  0.05809  0.89726  0.30330  1.0000
  H   H15       1.0  0.07537  0.83902  0.26273  1.0000
  O   O8        1.0  0.02705  0.86362  0.24424  1.0000
  H   H16       1.0  0.01973  0.85035  0.28290  1.0000
  C   C25       1.0  0.30108  0.63223  0.35272  1.0000
  C   C26       1.0  0.32569  0.64898  0.34921  1.0000
  C   C27       1.0  0.35721  0.64131  0.33581  1.0000
  O   O9        1.0  0.31650  0.67253  0.35651  1.0000
  H   H17       1.0  0.27911  0.63938  0.36051  1.0000
  H   H18       1.0  0.31772  0.67660  0.42051  1.0000
  C   C28       1.0  0.20095  0.37145  0.38011  1.0000
  C   C29       1.0  0.17665  0.35445  0.37317  1.0000
  C   C30       1.0  0.14536  0.36186  0.35476  1.0000
  O   O10       1.0  0.18507  0.33103  0.38934  1.0000
  H   H19       1.0  0.22273  0.36462  0.39385  1.0000
  H   H20       1.0  0.19664  0.32540  0.33629  1.0000
  C   C31       1.0  0.13905  0.61694  0.34564  1.0000
  C   C32       1.0  0.16371  0.59962  0.34658  1.0000
  C   C33       1.0  0.19523  0.60674  0.36245  1.0000
  H   H21       1.0  0.11698  0.61110  0.32954  1.0000
  O   O11       1.0  0.15653  0.57618  0.32800  1.0000
  H   H22       1.0  0.15768  0.57451  0.26255  1.0000
  C   C34       1.0  0.36328  0.38737  0.35248  1.0000
  C   C35       1.0  0.33844  0.40454  0.35452  1.0000
  C   C36       1.0  0.30709  0.39731  0.37250  1.0000
  H   H23       1.0  0.38527  0.39338  0.33633  1.0000
  O   O12       1.0  0.34531  0.42805  0.33632  1.0000
  H   H24       1.0  0.34379  0.42985  0.27098  1.0000
  C   C37       1.0  0.15446  0.24516  0.29534  1.0000
  C   C38       1.0  0.14667  0.26991  0.29316  1.0000
  C   C39       1.0  0.11646  0.27777  0.31975  1.0000
  H   H25       1.0  0.17648  0.24029  0.27489  1.0000
  O   O13       1.0  0.16905  0.28555  0.26383  1.0000
  H   H26       1.0  0.16428  0.28880  0.20056  1.0000
  C   C40       1.0  0.35001  0.75862  0.29041  1.0000
  C   C41       1.0  0.35732  0.73381  0.28580  1.0000
  C   C42       1.0  0.38691  0.72534  0.31528  1.0000
  H   H27       1.0  0.32849  0.76391  0.26721  1.0000
  O   O14       1.0  0.33525  0.71867  0.25123  1.0000
  H   H28       1.0  0.34085  0.71622  0.18803  1.0000
  C   C43       1.0  0.40550  0.25928  0.30764  1.0000
  C   C44       1.0  0.39788  0.23446  0.30933  1.0000
  C   C45       1.0  0.37013  0.22647  0.35211  1.0000
  O   O15       1.0  0.41761  0.21881  0.26715  1.0000
  H   H29       1.0  0.42534  0.26425  0.27408  1.0000
  H   H30       1.0  0.40919  0.21660  0.20642  1.0000
  C   C46       1.0  0.09786  0.74496  0.29390  1.0000
  C   C47       1.0  0.10561  0.76976  0.29231  1.0000
  C   C48       1.0  0.13365  0.77805  0.33279  1.0000
  O   O16       1.0  0.08570  0.78505  0.24905  1.0000
  H   H31       1.0  0.07783  0.73981  0.26170  1.0000
  H   H32       1.0  0.09358  0.78646  0.18741  1.0000
  C   C49       1.0  0.02859  0.98935  0.30180  1.0000
  C   C50       1.0  0.02872  0.01490  0.30234  1.0000
  C   C51       1.0  0.00256  0.02813  0.33510  1.0000
  O   O17       1.0  0.05485  0.02602  0.27009  1.0000
  H   H33       1.0  0.04789  0.98069  0.27670  1.0000
  H   H34       1.0  0.05043  0.02987  0.20707  1.0000
  C   C52       1.0  0.27693  0.48863  0.31935  1.0000
  C   C53       1.0  0.27718  0.51415  0.31434  1.0000
  C   C54       1.0  0.25066  0.52798  0.34103  1.0000
  O   O18       1.0  0.30400  0.52463  0.28373  1.0000
  H   H35       1.0  0.29663  0.47952  0.29936  1.0000
  H   H36       1.0  0.30059  0.52784  0.21971  1.0000
  C   C55       1.0  0.18434  0.17408  0.34485  1.0000
  N   N1        1.0  0.16304  0.15555  0.34072  1.0000
  C   C56       1.0  0.13143  0.15984  0.33311  1.0000
  N   N2        1.0  0.12244  0.18352  0.32726  1.0000
  C   C57       1.0  0.14218  0.20256  0.32766  1.0000
  N   N3        1.0  0.17259  0.19677  0.33696  1.0000
  C   C58       1.0  0.32112  0.83039  0.32195  1.0000
  N   N4        1.0  0.34290  0.84835  0.33354  1.0000
  C   C59       1.0  0.37435  0.84345  0.34218  1.0000
  N   N5        1.0  0.38295  0.81966  0.33900  1.0000
  C   C60       1.0  0.36286  0.80099  0.32816  1.0000
  N   N6        1.0  0.33265  0.80750  0.32005  1.0000
  C   C61       1.0  0.31850  0.17306  0.35514  1.0000
  N   N7        1.0  0.34000  0.15466  0.35399  1.0000
  C   C62       1.0  0.37165  0.15917  0.35608  1.0000
  N   N8        1.0  0.38080  0.18283  0.35430  1.0000
  C   C63       1.0  0.36084  0.20174  0.35262  1.0000
  N   N9        1.0  0.33029  0.19590  0.35414  1.0000
  C   C64       1.0  0.18657  0.83056  0.32056  1.0000
  N   N10       1.0  0.16559  0.84935  0.31784  1.0000
  C   C65       1.0  0.13380  0.84539  0.31593  1.0000
  N   N11       1.0  0.12397  0.82188  0.32091  1.0000
  C   C66       1.0  0.14338  0.80270  0.32864  1.0000
  N   N12       1.0  0.17409  0.80808  0.32731  1.0000
  C   C67       1.0  0.43539  0.67030  0.30011  1.0000
  N   N13       1.0  0.41317  0.65279  0.31473  1.0000
  C   C68       1.0  0.38200  0.65838  0.32567  1.0000
  N   N14       1.0  0.37447  0.68232  0.32415  1.0000
  C   C69       1.0  0.39519  0.70045  0.31266  1.0000
  N   N15       1.0  0.42512  0.69359  0.30077  1.0000
  C   C70       1.0  0.06778  0.33291  0.31129  1.0000
  N   N16       1.0  0.08985  0.35026  0.32924  1.0000
  C   C71       1.0  0.12093  0.34465  0.34143  1.0000
  N   N17       1.0  0.12865  0.32075  0.33684  1.0000
  C   C72       1.0  0.10804  0.30270  0.32118  1.0000
  N   N18       1.0  0.07813  0.30964  0.30880  1.0000
  C   C73       1.0  0.06848  0.67238  0.31072  1.0000
  N   N19       1.0  0.08991  0.65467  0.32965  1.0000
  C   C74       1.0  0.12066  0.65984  0.34866  1.0000
  N   N20       1.0  0.12870  0.68376  0.35004  1.0000
  C   C75       1.0  0.10869  0.70227  0.33375  1.0000
  N   N21       1.0  0.07910  0.69554  0.31403  1.0000
  C   C76       1.0  0.43467  0.33209  0.31894  1.0000
  N   N22       1.0  0.41313  0.34983  0.33682  1.0000
  C   C77       1.0  0.38236  0.34462  0.35577  1.0000
  N   N23       1.0  0.37462  0.32067  0.35886  1.0000
  C   C78       1.0  0.39472  0.30217  0.34398  1.0000
  N   N24       1.0  0.42425  0.30890  0.32379  1.0000
  C   C79       1.0  0.02890  0.09212  0.34460  1.0000
  N   N25       1.0  0.02897  0.06753  0.33825  1.0000
  C   C80       1.0  0.00191  0.05405  0.33981  1.0000
  N   N26       1.0  0.47391  0.06613  0.34855  1.0000
  C   C81       1.0  0.47228  0.09055  0.35875  1.0000
  N   N27       1.0  0.00025  0.10191  0.35558  1.0000
  C   C82       1.0  0.47521  0.91214  0.33527  1.0000
  N   N28       1.0  0.47581  0.93672  0.33594  1.0000
  C   C83       1.0  0.50304  0.94978  0.32908  1.0000
  N   N29       1.0  0.03060  0.93718  0.31880  1.0000
  C   C84       1.0  0.03148  0.91257  0.31301  1.0000
  N   N30       1.0  0.50345  0.90160  0.32311  1.0000
  C   C85       1.0  0.27877  0.59148  0.34748  1.0000
  N   N31       1.0  0.27791  0.56691  0.34180  1.0000
  C   C86       1.0  0.25045  0.55397  0.34244  1.0000
  N   N32       1.0  0.22286  0.56671  0.34899  1.0000
  C   C87       1.0  0.22193  0.59128  0.35636  1.0000
  N   N33       1.0  0.25034  0.60205  0.35492  1.0000
  C   C88       1.0  0.22324  0.41207  0.36618  1.0000
  N   N34       1.0  0.22382  0.43655  0.35744  1.0000
  C   C89       1.0  0.25111  0.44966  0.35484  1.0000
  N   N35       1.0  0.27894  0.43716  0.35924  1.0000
  C   C90       1.0  0.28017  0.41263  0.36880  1.0000
  N   N36       1.0  0.25183  0.40169  0.37168  1.0000
  C   C91       1.0  0.26793  0.19203  0.38158  1.0000
  C   C92       1.0  0.23522  0.19294  0.37952  1.0000
  C   C93       1.0  0.21736  0.17221  0.35541  1.0000
  O   O19       1.0  0.22237  0.21404  0.41014  1.0000
  H   H37       1.0  0.27896  0.20755  0.40179  1.0000
  H   H38       1.0  0.22565  0.22633  0.36338  1.0000
  C   C94       1.0  0.23689  0.85368  0.32895  1.0000
  C   C95       1.0  0.27026  0.85404  0.33065  1.0000
  C   C96       1.0  0.28793  0.83265  0.31481  1.0000
  O   O20       1.0  0.28487  0.87527  0.34982  1.0000
  H   H39       1.0  0.22506  0.86930  0.34349  1.0000
  H   H40       1.0  0.28670  0.87597  0.41538  1.0000
  C   C97       1.0  0.01940  0.64796  0.31988  1.0000
  C   C98       1.0  0.48606  0.64710  0.31902  1.0000
  C   C99       1.0  0.46829  0.66731  0.28945  1.0000
  O   O21       1.0  0.47163  0.62740  0.35474  1.0000
  H   H41       1.0  0.03133  0.63392  0.34873  1.0000
  H   H42       1.0  0.46957  0.63055  0.41927  1.0000
  C   C100      1.0  0.48407  0.35603  0.32998  1.0000
  C   C101      1.0  0.01742  0.35650  0.33026  1.0000
  C   C102      1.0  0.03494  0.33621  0.30008  1.0000
  O   O22       1.0  0.03204  0.37591  0.36752  1.0000
  H   H43       1.0  0.47231  0.37009  0.35931  1.0000
  H   H44       1.0  0.03376  0.37249  0.43194  1.0000
  C   C103      1.0  0.07577  0.14972  0.33419  1.0000
  C   C104      1.0  0.05036  0.13376  0.33641  1.0000
  C   C105      1.0  0.05491  0.10823  0.34003  1.0000
  H   H45       1.0  0.07025  0.16774  0.33306  1.0000
  O   O23       1.0  0.02191  0.14496  0.33429  1.0000
  H   H46       1.0  0.01577  0.14590  0.27089  1.0000
  C   C106      1.0  0.39235  0.88644  0.33983  1.0000
  C   C107      1.0  0.41686  0.90388  0.33892  1.0000
  C   C108      1.0  0.44875  0.89665  0.34473  1.0000
  H   H47       1.0  0.36986  0.89230  0.32965  1.0000
  O   O24       1.0  0.40923  0.92737  0.32326  1.0000
  H   H48       1.0  0.40449  0.93445  0.38209  1.0000
  C   C109      1.0  0.44971  0.12986  0.39467  1.0000
  C   C110      1.0  0.42608  0.14738  0.39061  1.0000
  C   C111      1.0  0.39524  0.14110  0.36300  1.0000
  O   O25       1.0  0.43410  0.16965  0.42285  1.0000
  H   H49       1.0  0.47083  0.13543  0.41964  1.0000
  H   H50       1.0  0.44625  0.17774  0.37549  1.0000
  C   C112      1.0  0.08915  0.90517  0.32051  1.0000
  C   C113      1.0  0.11481  0.88876  0.32330  1.0000
  C   C114      1.0  0.11034  0.86360  0.30795  1.0000
  O   O26       1.0  0.14347  0.89763  0.34607  1.0000
  H   H51       1.0  0.09307  0.92287  0.33721  1.0000
  H   H52       1.0  0.14492  0.89643  0.41162  1.0000
  C   C115      1.0  0.36217  0.61595  0.33069  1.0000
  C   C116      1.0  0.33713  0.59905  0.33607  1.0000
  C   C117      1.0  0.30557  0.60689  0.34556  1.0000
  H   H53       1.0  0.38440  0.60944  0.32115  1.0000
  O   O27       1.0  0.34409  0.57516  0.32754  1.0000
  H   H54       1.0  0.34779  0.56913  0.38855  1.0000
  C   C118      1.0  0.14023  0.38715  0.34692  1.0000
  C   C119      1.0  0.16505  0.40421  0.35298  1.0000
  C   C120      1.0  0.19650  0.39660  0.36683  1.0000
  H   H55       1.0  0.11817  0.39346  0.33335  1.0000
  O   O28       1.0  0.15812  0.42794  0.33943  1.0000
  H   H56       1.0  0.15276  0.43456  0.39855  1.0000
  C   C121      1.0  0.19987  0.63149  0.38356  1.0000
  C   C122      1.0  0.17558  0.64857  0.38408  1.0000
  C   C123      1.0  0.14443  0.64199  0.36057  1.0000
  O   O29       1.0  0.18448  0.67143  0.40630  1.0000
  H   H57       1.0  0.22166  0.63781  0.40028  1.0000
  H   H58       1.0  0.18164  0.67275  0.47146  1.0000
  C   C124      1.0  0.30283  0.37248  0.39291  1.0000
  C   C125      1.0  0.32705  0.35537  0.38904  1.0000
  C   C126      1.0  0.35823  0.36225  0.36687  1.0000
  O   O30       1.0  0.31839  0.33238  0.41053  1.0000
  H   H59       1.0  0.28123  0.36597  0.41056  1.0000
  H   H60       1.0  0.30876  0.32540  0.35648  1.0000
  C   C127      1.0  0.09443  0.25989  0.34541  1.0000
  C   C128      1.0  0.10229  0.23512  0.34805  1.0000
  C   C129      1.0  0.13272  0.22728  0.32301  1.0000
  O   O31       1.0  0.07987  0.21943  0.37684  1.0000
  H   H61       1.0  0.07243  0.26487  0.36583  1.0000
  H   H62       1.0  0.08332  0.21732  0.44146  1.0000
  C   C130      1.0  0.40853  0.74256  0.34842  1.0000
  C   C131      1.0  0.40097  0.76733  0.35424  1.0000
  C   C132      1.0  0.37148  0.77599  0.32413  1.0000
  O   O32       1.0  0.42287  0.78213  0.39094  1.0000
  H   H63       1.0  0.42995  0.73706  0.37188  1.0000
  H   H64       1.0  0.41812  0.78287  0.45531  1.0000
  C   C133      1.0  0.35083  0.24416  0.39281  1.0000
  C   C134      1.0  0.35877  0.26891  0.39226  1.0000
  C   C135      1.0  0.38619  0.27713  0.34786  1.0000
  H   H65       1.0  0.33082  0.23907  0.42573  1.0000
  O   O33       1.0  0.33914  0.28411  0.43659  1.0000
  H   H66       1.0  0.34816  0.28631  0.49662  1.0000
  C   C136      1.0  0.15299  0.76062  0.37494  1.0000
  C   C137      1.0  0.14499  0.73588  0.37729  1.0000
  C   C138      1.0  0.11731  0.72735  0.33504  1.0000
  H   H67       1.0  0.17322  0.76589  0.40626  1.0000
  O   O34       1.0  0.16490  0.72090  0.42159  1.0000
  H   H68       1.0  0.15680  0.71964  0.48305  1.0000
  C   C139      1.0  0.97656  0.01451  0.36570  1.0000
  C   C140      1.0  0.97645  0.98900  0.36540  1.0000
  C   C141      1.0  0.00256  0.97574  0.33237  1.0000
  H   H69       1.0  0.95728  0.02313  0.39124  1.0000
  O   O35       1.0  0.95030  0.97808  0.39859  1.0000
  H   H70       1.0  0.95475  0.97455  0.46184  1.0000
  C   C142      1.0  0.22403  0.51488  0.37032  1.0000
  C   C143      1.0  0.22376  0.48940  0.37540  1.0000
  C   C144      1.0  0.25038  0.47558  0.34940  1.0000
  H   H71       1.0  0.20445  0.52393  0.39164  1.0000
  O   O36       1.0  0.19717  0.47901  0.40801  1.0000
  H   H72       1.0  0.20070  0.47656  0.47244  1.0000
  C   C145      1.0  0.73421  0.15044  0.34081  1.0000
  C   C146      1.0  0.76755  0.14980  0.34161  1.0000
  C   C147      1.0  0.78527  0.17107  0.35869  1.0000
  H   H73       1.0  0.72229  0.13501  0.32411  1.0000
  O   O37       1.0  0.78204  0.12855  0.32182  1.0000
  H   H74       1.0  0.78504  0.12843  0.25655  1.0000
  C   C148      1.0  0.77038  0.81175  0.29225  1.0000
  C   C149      1.0  0.73765  0.81099  0.29386  1.0000
  C   C150      1.0  0.71980  0.83199  0.31489  1.0000
  H   H75       1.0  0.78128  0.79600  0.27411  1.0000
  O   O38       1.0  0.72490  0.78962  0.26562  1.0000
  H   H76       1.0  0.72674  0.77814  0.31574  1.0000
  C   C151      1.0  0.98543  0.68660  0.25077  1.0000
  C   C152      1.0  0.51818  0.68789  0.25364  1.0000
  C   C153      1.0  0.53602  0.66902  0.29333  1.0000
  H   H77       1.0  0.97406  0.70080  0.22093  1.0000
  O   O39       1.0  0.53156  0.70722  0.21136  1.0000
  H   H78       1.0  0.52570  0.72182  0.24520  1.0000
  C   C154      1.0  0.51761  0.31727  0.25983  1.0000
  C   C155      1.0  0.98482  0.31637  0.26156  1.0000
  C   C156      1.0  0.96718  0.33527  0.30183  1.0000
  H   H79       1.0  0.52882  0.30305  0.22963  1.0000
  O   O40       1.0  0.97109  0.29747  0.21747  1.0000
  H   H80       1.0  0.97687  0.28255  0.24942  1.0000
  C   C157      1.0  0.58646  0.10012  0.33793  1.0000
  C   C158      1.0  0.61219  0.11646  0.33511  1.0000
  C   C159      1.0  0.60739  0.14193  0.33385  1.0000
  O   O41       1.0  0.64159  0.10696  0.33488  1.0000
  H   H81       1.0  0.59105  0.08195  0.33984  1.0000
  H   H82       1.0  0.64739  0.10495  0.27161  1.0000
  C   C160      1.0  0.95415  0.87177  0.36111  1.0000
  C   C161      1.0  0.93007  0.85461  0.36484  1.0000
  C   C162      1.0  0.89830  0.86129  0.34972  1.0000
  O   O42       1.0  0.93986  0.83165  0.38201  1.0000
  H   H83       1.0  0.97633  0.86550  0.37301  1.0000
  H   H84       1.0  0.93906  0.82976  0.44744  1.0000
  C   C163      1.0  0.88960  0.11627  0.34461  1.0000
  C   C164      1.0  0.91414  0.09886  0.34473  1.0000
  C   C165      1.0  0.94535  0.10562  0.36647  1.0000
  H   H85       1.0  0.86767  0.11085  0.32526  1.0000
  O   O43       1.0  0.90731  0.07582  0.31949  1.0000
  H   H86       1.0  0.90973  0.07530  0.25405  1.0000
  C   C166      1.0  0.57978  0.85644  0.28222  1.0000
  C   C167      1.0  0.55432  0.87248  0.27966  1.0000
  C   C168      1.0  0.55809  0.89726  0.30330  1.0000
  H   H87       1.0  0.57537  0.83902  0.26273  1.0000
  O   O44       1.0  0.52705  0.86362  0.24424  1.0000
  H   H88       1.0  0.51973  0.85035  0.28290  1.0000
  C   C169      1.0  0.80108  0.63223  0.35272  1.0000
  C   C170      1.0  0.82568  0.64898  0.34921  1.0000
  C   C171      1.0  0.85721  0.64131  0.33581  1.0000
  O   O45       1.0  0.81650  0.67253  0.35651  1.0000
  H   H89       1.0  0.77911  0.63938  0.36051  1.0000
  H   H90       1.0  0.81772  0.67660  0.42051  1.0000
  C   C172      1.0  0.70095  0.37145  0.38011  1.0000
  C   C173      1.0  0.67665  0.35445  0.37317  1.0000
  C   C174      1.0  0.64535  0.36186  0.35476  1.0000
  O   O46       1.0  0.68507  0.33103  0.38934  1.0000
  H   H91       1.0  0.72273  0.36462  0.39385  1.0000
  H   H92       1.0  0.69664  0.32540  0.33629  1.0000
  C   C175      1.0  0.63905  0.61694  0.34564  1.0000
  C   C176      1.0  0.66371  0.59962  0.34658  1.0000
  C   C177      1.0  0.69523  0.60674  0.36245  1.0000
  H   H93       1.0  0.61698  0.61110  0.32954  1.0000
  O   O47       1.0  0.65653  0.57618  0.32800  1.0000
  H   H94       1.0  0.65768  0.57451  0.26255  1.0000
  C   C178      1.0  0.86328  0.38737  0.35248  1.0000
  C   C179      1.0  0.83844  0.40454  0.35452  1.0000
  C   C180      1.0  0.80709  0.39731  0.37250  1.0000
  H   H95       1.0  0.88527  0.39338  0.33633  1.0000
  O   O48       1.0  0.84531  0.42805  0.33632  1.0000
  H   H96       1.0  0.84379  0.42985  0.27098  1.0000
  C   C181      1.0  0.65446  0.24516  0.29534  1.0000
  C   C182      1.0  0.64667  0.26991  0.29316  1.0000
  C   C183      1.0  0.61645  0.27777  0.31975  1.0000
  H   H97       1.0  0.67648  0.24029  0.27489  1.0000
  O   O49       1.0  0.66905  0.28555  0.26383  1.0000
  H   H98       1.0  0.66428  0.28880  0.20056  1.0000
  C   C184      1.0  0.85001  0.75862  0.29041  1.0000
  C   C185      1.0  0.85732  0.73381  0.28580  1.0000
  C   C186      1.0  0.88691  0.72534  0.31528  1.0000
  H   H99       1.0  0.82849  0.76391  0.26721  1.0000
  O   O50       1.0  0.83525  0.71867  0.25123  1.0000
  H   H100      1.0  0.84085  0.71622  0.18803  1.0000
  C   C187      1.0  0.90550  0.25928  0.30764  1.0000
  C   C188      1.0  0.89788  0.23446  0.30933  1.0000
  C   C189      1.0  0.87013  0.22647  0.35211  1.0000
  O   O51       1.0  0.91761  0.21881  0.26715  1.0000
  H   H101      1.0  0.92534  0.26425  0.27408  1.0000
  H   H102      1.0  0.90919  0.21660  0.20642  1.0000
  C   C190      1.0  0.59786  0.74496  0.29390  1.0000
  C   C191      1.0  0.60561  0.76976  0.29231  1.0000
  C   C192      1.0  0.63365  0.77805  0.33279  1.0000
  O   O52       1.0  0.58570  0.78505  0.24905  1.0000
  H   H103      1.0  0.57783  0.73981  0.26170  1.0000
  H   H104      1.0  0.59358  0.78646  0.18741  1.0000
  C   C193      1.0  0.52859  0.98935  0.30180  1.0000
  C   C194      1.0  0.52872  0.01490  0.30234  1.0000
  C   C195      1.0  0.50256  0.02813  0.33510  1.0000
  O   O53       1.0  0.55485  0.02602  0.27009  1.0000
  H   H105      1.0  0.54789  0.98069  0.27670  1.0000
  H   H106      1.0  0.55043  0.02987  0.20707  1.0000
  C   C196      1.0  0.77693  0.48863  0.31935  1.0000
  C   C197      1.0  0.77719  0.51415  0.31434  1.0000
  C   C198      1.0  0.75066  0.52798  0.34103  1.0000
  O   O54       1.0  0.80400  0.52463  0.28373  1.0000
  H   H107      1.0  0.79663  0.47952  0.29936  1.0000
  H   H108      1.0  0.80059  0.52784  0.21971  1.0000
  C   C199      1.0  0.68434  0.17408  0.34485  1.0000
  N   N37       1.0  0.66303  0.15555  0.34072  1.0000
  C   C200      1.0  0.63143  0.15984  0.33311  1.0000
  N   N38       1.0  0.62244  0.18352  0.32726  1.0000
  C   C201      1.0  0.64218  0.20256  0.32766  1.0000
  N   N39       1.0  0.67259  0.19677  0.33696  1.0000
  C   C202      1.0  0.82112  0.83039  0.32195  1.0000
  N   N40       1.0  0.84290  0.84835  0.33354  1.0000
  C   C203      1.0  0.87435  0.84345  0.34218  1.0000
  N   N41       1.0  0.88294  0.81966  0.33900  1.0000
  C   C204      1.0  0.86286  0.80099  0.32816  1.0000
  N   N42       1.0  0.83265  0.80750  0.32005  1.0000
  C   C205      1.0  0.81850  0.17306  0.35514  1.0000
  N   N43       1.0  0.84000  0.15466  0.35399  1.0000
  C   C206      1.0  0.87165  0.15917  0.35608  1.0000
  N   N44       1.0  0.88080  0.18283  0.35430  1.0000
  C   C207      1.0  0.86084  0.20174  0.35262  1.0000
  N   N45       1.0  0.83029  0.19590  0.35414  1.0000
  C   C208      1.0  0.68656  0.83056  0.32056  1.0000
  N   N46       1.0  0.66560  0.84935  0.31784  1.0000
  C   C209      1.0  0.63380  0.84539  0.31593  1.0000
  N   N47       1.0  0.62397  0.82188  0.32091  1.0000
  C   C210      1.0  0.64338  0.80270  0.32864  1.0000
  N   N48       1.0  0.67409  0.80808  0.32731  1.0000
  C   C211      1.0  0.93539  0.67030  0.30011  1.0000
  N   N49       1.0  0.91317  0.65279  0.31473  1.0000
  C   C212      1.0  0.88200  0.65838  0.32567  1.0000
  N   N50       1.0  0.87447  0.68232  0.32415  1.0000
  C   C213      1.0  0.89519  0.70045  0.31266  1.0000
  N   N51       1.0  0.92512  0.69359  0.30077  1.0000
  C   C214      1.0  0.56778  0.33291  0.31129  1.0000
  N   N52       1.0  0.58985  0.35026  0.32924  1.0000
  C   C215      1.0  0.62093  0.34465  0.34143  1.0000
  N   N53       1.0  0.62865  0.32075  0.33684  1.0000
  C   C216      1.0  0.60804  0.30270  0.32118  1.0000
  N   N54       1.0  0.57813  0.30964  0.30880  1.0000
  C   C217      1.0  0.56848  0.67238  0.31072  1.0000
  N   N55       1.0  0.58991  0.65467  0.32965  1.0000
  C   C218      1.0  0.62066  0.65984  0.34866  1.0000
  N   N56       1.0  0.62870  0.68376  0.35004  1.0000
  C   C219      1.0  0.60869  0.70227  0.33375  1.0000
  N   N57       1.0  0.57910  0.69554  0.31403  1.0000
  C   C220      1.0  0.93467  0.33209  0.31894  1.0000
  N   N58       1.0  0.91313  0.34983  0.33682  1.0000
  C   C221      1.0  0.88236  0.34462  0.35577  1.0000
  N   N59       1.0  0.87462  0.32067  0.35886  1.0000
  C   C222      1.0  0.89472  0.30217  0.34398  1.0000
  N   N60       1.0  0.92425  0.30890  0.32379  1.0000
  C   C223      1.0  0.52890  0.09212  0.34460  1.0000
  N   N61       1.0  0.52897  0.06753  0.33825  1.0000
  C   C224      1.0  0.50191  0.05405  0.33981  1.0000
  N   N62       1.0  0.97391  0.06613  0.34855  1.0000
  C   C225      1.0  0.97228  0.09055  0.35875  1.0000
  N   N63       1.0  0.50025  0.10191  0.35558  1.0000
  C   C226      1.0  0.97521  0.91214  0.33527  1.0000
  N   N64       1.0  0.97581  0.93672  0.33594  1.0000
  C   C227      1.0  0.00304  0.94978  0.32908  1.0000
  N   N65       1.0  0.53061  0.93718  0.31880  1.0000
  C   C228      1.0  0.53148  0.91257  0.31301  1.0000
  N   N66       1.0  0.00345  0.90160  0.32311  1.0000
  C   C229      1.0  0.77877  0.59148  0.34748  1.0000
  N   N67       1.0  0.77791  0.56691  0.34180  1.0000
  C   C230      1.0  0.75045  0.55397  0.34244  1.0000
  N   N68       1.0  0.72286  0.56671  0.34899  1.0000
  C   C231      1.0  0.72193  0.59128  0.35636  1.0000
  N   N69       1.0  0.75034  0.60205  0.35492  1.0000
  C   C232      1.0  0.72324  0.41207  0.36618  1.0000
  N   N70       1.0  0.72382  0.43655  0.35744  1.0000
  C   C233      1.0  0.75111  0.44966  0.35484  1.0000
  N   N71       1.0  0.77894  0.43716  0.35924  1.0000
  C   C234      1.0  0.78017  0.41263  0.36880  1.0000
  N   N72       1.0  0.75183  0.40169  0.37168  1.0000
  C   C235      1.0  0.76793  0.19203  0.38158  1.0000
  C   C236      1.0  0.73522  0.19294  0.37952  1.0000
  C   C237      1.0  0.71736  0.17221  0.35541  1.0000
  O   O55       1.0  0.72237  0.21404  0.41014  1.0000
  H   H109      1.0  0.77896  0.20755  0.40179  1.0000
  H   H110      1.0  0.72565  0.22633  0.36338  1.0000
  C   C238      1.0  0.73689  0.85368  0.32895  1.0000
  C   C239      1.0  0.77026  0.85404  0.33065  1.0000
  C   C240      1.0  0.78793  0.83265  0.31481  1.0000
  O   O56       1.0  0.78487  0.87527  0.34982  1.0000
  H   H111      1.0  0.72506  0.86930  0.34349  1.0000
  H   H112      1.0  0.78670  0.87597  0.41538  1.0000
  C   C241      1.0  0.51940  0.64796  0.31988  1.0000
  C   C242      1.0  0.98606  0.64710  0.31902  1.0000
  C   C243      1.0  0.96829  0.66731  0.28945  1.0000
  O   O57       1.0  0.97162  0.62740  0.35474  1.0000
  H   H113      1.0  0.53133  0.63392  0.34873  1.0000
  H   H114      1.0  0.96957  0.63055  0.41927  1.0000
  C   C244      1.0  0.98407  0.35603  0.32998  1.0000
  C   C245      1.0  0.51742  0.35650  0.33026  1.0000
  C   C246      1.0  0.53494  0.33621  0.30008  1.0000
  O   O58       1.0  0.53204  0.37591  0.36752  1.0000
  H   H115      1.0  0.97231  0.37009  0.35931  1.0000
  H   H116      1.0  0.53376  0.37249  0.43194  1.0000
  C   C247      1.0  0.57577  0.14972  0.33419  1.0000
  C   C248      1.0  0.55036  0.13376  0.33641  1.0000
  C   C249      1.0  0.55491  0.10823  0.34003  1.0000
  H   H117      1.0  0.57025  0.16774  0.33306  1.0000
  O   O59       1.0  0.52191  0.14496  0.33429  1.0000
  H   H118      1.0  0.51577  0.14590  0.27089  1.0000
  C   C250      1.0  0.89235  0.88644  0.33983  1.0000
  C   C251      1.0  0.91686  0.90388  0.33892  1.0000
  C   C252      1.0  0.94875  0.89665  0.34473  1.0000
  H   H119      1.0  0.86986  0.89230  0.32965  1.0000
  O   O60       1.0  0.90923  0.92737  0.32326  1.0000
  H   H120      1.0  0.90449  0.93445  0.38209  1.0000
  C   C253      1.0  0.94971  0.12986  0.39467  1.0000
  C   C254      1.0  0.92608  0.14738  0.39061  1.0000
  C   C255      1.0  0.89524  0.14110  0.36300  1.0000
  O   O61       1.0  0.93410  0.16965  0.42285  1.0000
  H   H121      1.0  0.97083  0.13543  0.41964  1.0000
  H   H122      1.0  0.94625  0.17774  0.37549  1.0000
  C   C256      1.0  0.58915  0.90517  0.32051  1.0000
  C   C257      1.0  0.61481  0.88876  0.32330  1.0000
  C   C258      1.0  0.61034  0.86360  0.30795  1.0000
  O   O62       1.0  0.64347  0.89763  0.34607  1.0000
  H   H123      1.0  0.59307  0.92287  0.33721  1.0000
  H   H124      1.0  0.64492  0.89643  0.41162  1.0000
  C   C259      1.0  0.86217  0.61595  0.33069  1.0000
  C   C260      1.0  0.83713  0.59905  0.33607  1.0000
  C   C261      1.0  0.80557  0.60689  0.34556  1.0000
  H   H125      1.0  0.88440  0.60944  0.32115  1.0000
  O   O63       1.0  0.84409  0.57516  0.32754  1.0000
  H   H126      1.0  0.84779  0.56913  0.38855  1.0000
  C   C262      1.0  0.64023  0.38715  0.34692  1.0000
  C   C263      1.0  0.66505  0.40421  0.35298  1.0000
  C   C264      1.0  0.69650  0.39660  0.36683  1.0000
  H   H127      1.0  0.61817  0.39346  0.33335  1.0000
  O   O64       1.0  0.65812  0.42794  0.33943  1.0000
  H   H128      1.0  0.65276  0.43456  0.39855  1.0000
  C   C265      1.0  0.69987  0.63149  0.38356  1.0000
  C   C266      1.0  0.67558  0.64857  0.38408  1.0000
  C   C267      1.0  0.64443  0.64199  0.36057  1.0000
  O   O65       1.0  0.68448  0.67143  0.40630  1.0000
  H   H129      1.0  0.72166  0.63781  0.40028  1.0000
  H   H130      1.0  0.68164  0.67275  0.47146  1.0000
  C   C268      1.0  0.80283  0.37248  0.39291  1.0000
  C   C269      1.0  0.82705  0.35537  0.38904  1.0000
  C   C270      1.0  0.85823  0.36225  0.36687  1.0000
  O   O66       1.0  0.81839  0.33238  0.41053  1.0000
  H   H131      1.0  0.78122  0.36597  0.41056  1.0000
  H   H132      1.0  0.80876  0.32540  0.35648  1.0000
  C   C271      1.0  0.59443  0.25989  0.34541  1.0000
  C   C272      1.0  0.60229  0.23512  0.34805  1.0000
  C   C273      1.0  0.63272  0.22728  0.32301  1.0000
  O   O67       1.0  0.57987  0.21943  0.37684  1.0000
  H   H133      1.0  0.57242  0.26487  0.36583  1.0000
  H   H134      1.0  0.58332  0.21732  0.44146  1.0000
  C   C274      1.0  0.90853  0.74256  0.34842  1.0000
  C   C275      1.0  0.90097  0.76733  0.35424  1.0000
  C   C276      1.0  0.87148  0.77599  0.32413  1.0000
  O   O68       1.0  0.92287  0.78213  0.39094  1.0000
  H   H135      1.0  0.92995  0.73706  0.37188  1.0000
  H   H136      1.0  0.91812  0.78287  0.45531  1.0000
  C   C277      1.0  0.85083  0.24416  0.39281  1.0000
  C   C278      1.0  0.85877  0.26891  0.39226  1.0000
  C   C279      1.0  0.88619  0.27713  0.34786  1.0000
  H   H137      1.0  0.83082  0.23907  0.42573  1.0000
  O   O69       1.0  0.83914  0.28411  0.43659  1.0000
  H   H138      1.0  0.84816  0.28631  0.49662  1.0000
  C   C280      1.0  0.65299  0.76062  0.37494  1.0000
  C   C281      1.0  0.64498  0.73588  0.37729  1.0000
  C   C282      1.0  0.61731  0.72735  0.33504  1.0000
  H   H139      1.0  0.67322  0.76589  0.40626  1.0000
  O   O70       1.0  0.66490  0.72090  0.42159  1.0000
  H   H140      1.0  0.65680  0.71964  0.48305  1.0000
  C   C283      1.0  0.47656  0.01451  0.36570  1.0000
  C   C284      1.0  0.47645  0.98900  0.36540  1.0000
  C   C285      1.0  0.50256  0.97574  0.33237  1.0000
  H   H141      1.0  0.45728  0.02313  0.39124  1.0000
  O   O71       1.0  0.45030  0.97808  0.39859  1.0000
  H   H142      1.0  0.45476  0.97455  0.46184  1.0000
  C   C286      1.0  0.72403  0.51488  0.37032  1.0000
  C   C287      1.0  0.72376  0.48940  0.37540  1.0000
  C   C288      1.0  0.75038  0.47558  0.34940  1.0000
  H   H143      1.0  0.70445  0.52393  0.39164  1.0000
  O   O72       1.0  0.69717  0.47901  0.40801  1.0000
  H   H144      1.0  0.70070  0.47656  0.47244  1.0000
