data_image0
_chemical_formula_structural       C7H2CNHNC5H2C2HC3H2C5H2CNCHNHNCNHC4HC5H4C4H3CNHC5HC6H3C4HC6H3C2H2CHCNCHNHCNCHNHC4HC6H3C4HC6H3C4HC6H3C4HC6H3C4HC6H3C4HC6H3CNCHNHCNCHNHCNCHNHCNCHNHCNCHNHCNCHNHC4HC6H3C4HC6H3C4HC6H3C4HCHC4HC6H3C4HC6H3C4H2C3H2C6H3C6H3C6H2C6H3C6H3C6H3C6H3C6H3CHC6H3C6H3C6H3C6H3C6H3CNCHNHCHC5HC6H3C4HC6H3CNCHNHCNCHNHCNCHNHCNCHNHCNCHNHCNCNHC4HC6H3C4HC6H3C4HC6H3C4HC6HC6H3C4HC6H3CNCHNHCNCHNHCNCHNHCNHCNCHNHCNCHNH
_chemical_formula_sum              "C384 H192 N48"
_cell_length_a       62.8248
_cell_length_b       62.8248
_cell_length_c       14.9364
_cell_angle_alpha    90
_cell_angle_beta     90
_cell_angle_gamma    120

_space_group_name_H-M_alt    "P 1"
_space_group_IT_number       1

loop_
  _space_group_symop_operation_xyz
  'x, y, z'

loop_
  _atom_site_type_symbol
  _atom_site_label
  _atom_site_symmetry_multiplicity
  _atom_site_fract_x
  _atom_site_fract_y
  _atom_site_fract_z
  _atom_site_occupancy
  C   C1        1.0  0.11313  0.00070  0.31238  1.0000
  C   C2        1.0  0.13241  0.01676  0.25420  1.0000
  C   C3        1.0  0.09063  0.00084  0.31403  1.0000
  C   C4        1.0  0.06488  0.01758  0.26448  1.0000
  C   C5        1.0  0.08719  0.01716  0.25799  1.0000
  C   C6        1.0  0.10626  0.03268  0.19891  1.0000
  C   C7        1.0  0.12857  0.03244  0.19693  1.0000
  H   H1        1.0  0.10422  0.04457  0.15794  1.0000
  H   H2        1.0  0.06228  0.02928  0.22430  1.0000
  C   C8        1.0  0.06774  0.26201  0.29990  1.0000
  N   N1        1.0  0.08645  0.28570  0.30381  1.0000
  H   H3        1.0  0.06773  0.25105  0.24928  1.0000
  N   N2        1.0  0.12486  0.33553  0.30049  1.0000
  C   C9        1.0  0.01666  0.55067  0.30873  1.0000
  C   C10       1.0  0.06819  0.57452  0.31983  1.0000
  C   C11       1.0  0.05571  0.55737  0.25068  1.0000
  C   C12       1.0  0.02989  0.54527  0.24413  1.0000
  C   C13       1.0  0.01709  0.52754  0.17723  1.0000
  H   H4        1.0  0.02640  0.52340  0.13053  1.0000
  H   H5        1.0  0.06548  0.55331  0.20567  1.0000
  C   C14       1.0  0.02296  0.02466  0.33953  1.0000
  C   C15       1.0  0.02338  0.00235  0.33357  1.0000
  H   H6        1.0  0.03920  0.04098  0.33671  1.0000
  C   C16       1.0  0.02569  0.23046  0.34694  1.0000
  C   C17       1.0  0.00324  0.18508  0.33357  1.0000
  C   C18       1.0  0.02545  0.20784  0.34374  1.0000
  H   H7        1.0  0.04177  0.20801  0.34980  1.0000
  H   H8        1.0  0.13571  0.41546  0.34890  1.0000
  C   C19       1.0  0.09390  0.58484  0.33099  1.0000
  C   C20       1.0  0.10400  0.56930  0.33840  1.0000
  C   C21       1.0  0.12960  0.57882  0.34583  1.0000
  C   C22       1.0  0.13561  0.62070  0.33855  1.0000
  C   C23       1.0  0.10983  0.61050  0.33326  1.0000
  H   H9        1.0  0.10260  0.62186  0.32639  1.0000
  H   H10       1.0  0.09243  0.55063  0.33781  1.0000
  C   C24       1.0  0.01743  0.15717  0.39354  1.0000
  N   N3        1.0  0.01646  0.13505  0.39373  1.0000
  C   C25       1.0  0.01563  0.06765  0.40399  1.0000
  H   H11       1.0  0.02822  0.16985  0.44040  1.0000
  N   N4        1.0  0.01555  0.08924  0.39918  1.0000
  H   H12       1.0  0.02663  0.06599  0.45058  1.0000
  N   N5        1.0  0.11714  0.98590  0.36780  1.0000
  C   C26       1.0  0.05056  0.98587  0.37692  1.0000
  N   N6        1.0  0.07217  0.98597  0.37056  1.0000
  H   H13       1.0  0.03797  0.97434  0.42276  1.0000
  C   C27       1.0  0.04764  0.25353  0.35945  1.0000
  C   C28       1.0  0.08761  0.30235  0.36487  1.0000
  C   C29       1.0  0.06842  0.29462  0.42893  1.0000
  C   C30       1.0  0.04867  0.27019  0.42546  1.0000
  H   H14       1.0  0.03435  0.26473  0.46946  1.0000
  C   C31       1.0  0.10672  0.32722  0.36305  1.0000
  C   C32       1.0  0.12515  0.36927  0.41887  1.0000
  C   C33       1.0  0.10664  0.34432  0.42521  1.0000
  C   C34       1.0  0.08783  0.33624  0.49002  1.0000
  C   C35       1.0  0.06886  0.31160  0.49183  1.0000
  H   H15       1.0  0.08744  0.34835  0.53497  1.0000
  H   H16       1.0  0.05508  0.30632  0.53797  1.0000
  H   H17       1.0  0.12507  0.38169  0.46312  1.0000
  H   H18       1.0  0.13475  0.65459  0.44687  1.0000
  C   C36       1.0  0.12879  0.54340  0.42019  1.0000
  C   C37       1.0  0.13405  0.52403  0.41962  1.0000
  C   C38       1.0  0.12400  0.50503  0.48396  1.0000
  C   C39       1.0  0.12884  0.48549  0.47965  1.0000
  H   H19       1.0  0.11294  0.50516  0.53400  1.0000
  H   H20       1.0  0.12128  0.47188  0.52686  1.0000
  H   H21       1.0  0.11716  0.54356  0.46793  1.0000
  C   C40       1.0  0.05410  0.57972  0.38022  1.0000
  N   N7        1.0  0.02925  0.56760  0.37342  1.0000
  H   H22       1.0  0.06220  0.59164  0.43235  1.0000
  C   C41       1.0  0.04602  0.00202  0.32483  1.0000
  C   C42       1.0  0.00318  0.16215  0.33266  1.0000
  C   C43       1.0  0.00228  0.11642  0.33659  1.0000
  C   C44       1.0  0.98773  0.12026  0.27285  1.0000
  C   C45       1.0  0.98845  0.14313  0.27169  1.0000
  H   H23       1.0  0.97814  0.14597  0.22521  1.0000
  C   C46       1.0  0.00166  0.09354  0.33989  1.0000
  C   C47       1.0  0.00057  0.04782  0.34664  1.0000
  C   C48       1.0  0.98582  0.05170  0.28457  1.0000
  C   C49       1.0  0.98629  0.07441  0.27983  1.0000
  C   C50       1.0  0.97200  0.07847  0.21658  1.0000
  C   C51       1.0  0.97279  0.10121  0.21289  1.0000
  H   H24       1.0  0.96091  0.06492  0.17266  1.0000
  H   H25       1.0  0.96218  0.10364  0.16661  1.0000
  H   H26       1.0  0.97508  0.03803  0.24040  1.0000
  C   C52       1.0  0.84308  0.84228  0.33408  1.0000
  C   C53       1.0  0.88781  0.88808  0.33510  1.0000
  C   C54       1.0  0.88447  0.86969  0.27208  1.0000
  C   C55       1.0  0.86212  0.84700  0.27259  1.0000
  H   H27       1.0  0.85954  0.83390  0.22628  1.0000
  C   C56       1.0  0.91008  0.91094  0.33641  1.0000
  C   C57       1.0  0.95494  0.95660  0.34080  1.0000
  C   C58       1.0  0.95118  0.93825  0.27748  1.0000
  C   C59       1.0  0.92905  0.91543  0.27446  1.0000
  C   C60       1.0  0.92549  0.89711  0.21185  1.0000
  C   C61       1.0  0.90343  0.87445  0.21072  1.0000
  H   H28       1.0  0.93900  0.90006  0.16685  1.0000
  H   H29       1.0  0.90136  0.86144  0.16488  1.0000
  H   H30       1.0  0.96471  0.94159  0.23198  1.0000
  C   C62       1.0  0.15884  0.00128  0.31598  1.0000
  C   C63       1.0  0.15499  0.01676  0.25687  1.0000
  H   H31       1.0  0.16882  0.02821  0.21456  1.0000
  H   H32       1.0  0.14220  0.04421  0.15459  1.0000
  C   C64       1.0  0.14299  0.35940  0.29387  1.0000
  H   H33       1.0  0.15551  0.36413  0.24328  1.0000
  C   C65       1.0  0.74343  0.80677  0.29962  1.0000
  N   N8        1.0  0.71978  0.80190  0.30367  1.0000
  C   C66       1.0  0.64614  0.78490  0.29378  1.0000
  H   H34       1.0  0.75444  0.81780  0.24927  1.0000
  N   N9        1.0  0.66999  0.79061  0.30042  1.0000
  H   H35       1.0  0.64143  0.79274  0.24329  1.0000
  C   C67       1.0  0.19539  0.93737  0.29729  1.0000
  N   N10       1.0  0.20095  0.91902  0.30098  1.0000
  C   C68       1.0  0.21957  0.86313  0.29249  1.0000
  H   H36       1.0  0.18417  0.93699  0.24705  1.0000
  N   N11       1.0  0.21345  0.88103  0.29824  1.0000
  H   H37       1.0  0.21164  0.85027  0.24303  1.0000
  C   C69       1.0  0.25107  0.04673  0.31197  1.0000
  C   C70       1.0  0.30062  0.08595  0.31376  1.0000
  C   C71       1.0  0.29305  0.06683  0.24938  1.0000
  C   C72       1.0  0.26835  0.04756  0.24917  1.0000
  H   H38       1.0  0.26308  0.03334  0.20486  1.0000
  C   C73       1.0  0.32573  0.10466  0.31821  1.0000
  C   C74       1.0  0.37641  0.14114  0.33191  1.0000
  C   C75       1.0  0.36820  0.12239  0.26631  1.0000
  C   C76       1.0  0.34313  0.10416  0.25853  1.0000
  C   C77       1.0  0.33521  0.08531  0.19397  1.0000
  C   C78       1.0  0.31041  0.06683  0.18941  1.0000
  H   H39       1.0  0.34750  0.08462  0.15078  1.0000
  H   H40       1.0  0.30525  0.05307  0.14321  1.0000
  H   H41       1.0  0.38069  0.12200  0.22321  1.0000
  C   C79       1.0  0.79646  0.75070  0.31394  1.0000
  C   C80       1.0  0.78745  0.70178  0.31222  1.0000
  C   C81       1.0  0.77587  0.70922  0.24758  1.0000
  C   C82       1.0  0.78063  0.73369  0.24920  1.0000
  H   H42       1.0  0.77166  0.73893  0.20485  1.0000
  C   C83       1.0  0.78161  0.67689  0.31578  1.0000
  C   C84       1.0  0.76814  0.62664  0.32983  1.0000
  C   C85       1.0  0.75778  0.63457  0.26263  1.0000
  C   C86       1.0  0.76425  0.65951  0.25475  1.0000
  C   C87       1.0  0.75338  0.66729  0.18943  1.0000
  C   C88       1.0  0.75913  0.69194  0.18592  1.0000
  H   H43       1.0  0.74077  0.65498  0.14529  1.0000
  H   H44       1.0  0.75053  0.69701  0.13940  1.0000
  H   H45       1.0  0.74518  0.62197  0.21906  1.0000
  C   C89       1.0  0.95866  0.20913  0.31389  1.0000
  C   C90       1.0  0.91863  0.21796  0.31216  1.0000
  C   C91       1.0  0.93767  0.22963  0.24760  1.0000
  C   C92       1.0  0.95745  0.22498  0.24930  1.0000
  H   H46       1.0  0.97165  0.23396  0.20489  1.0000
  C   C93       1.0  0.89950  0.22370  0.31567  1.0000
  C   C94       1.0  0.86256  0.23695  0.32962  1.0000
  C   C95       1.0  0.88087  0.24738  0.26246  1.0000
  C   C96       1.0  0.89941  0.24102  0.25464  1.0000
  C   C97       1.0  0.91806  0.25195  0.18936  1.0000
  C   C98       1.0  0.93705  0.24631  0.18589  1.0000
  H   H47       1.0  0.91832  0.26455  0.14526  1.0000
  H   H48       1.0  0.95073  0.25499  0.13950  1.0000
  H   H49       1.0  0.88082  0.25996  0.21891  1.0000
  C   C99       1.0  0.35935  0.50573  0.33582  1.0000
  C   C100      1.0  0.30767  0.48095  0.32239  1.0000
  C   C101      1.0  0.32209  0.49961  0.25924  1.0000
  C   C102      1.0  0.34796  0.51197  0.26719  1.0000
  H   H50       1.0  0.35859  0.52502  0.22085  1.0000
  C   C103      1.0  0.28175  0.46838  0.31683  1.0000
  C   C104      1.0  0.22997  0.44495  0.31294  1.0000
  C   C105      1.0  0.24422  0.46246  0.24674  1.0000
  C   C106      1.0  0.27012  0.47444  0.24793  1.0000
  C   C107      1.0  0.28454  0.49271  0.18462  1.0000
  C   C108      1.0  0.31032  0.50520  0.19024  1.0000
  H   H51       1.0  0.27640  0.49733  0.13481  1.0000
  H   H52       1.0  0.32040  0.51853  0.14409  1.0000
  H   H53       1.0  0.23564  0.46721  0.19888  1.0000
  C   C109      1.0  0.49917  0.85444  0.33608  1.0000
  C   C110      1.0  0.52421  0.82777  0.32260  1.0000
  C   C111      1.0  0.50555  0.82347  0.25938  1.0000
  C   C112      1.0  0.49307  0.83686  0.26733  1.0000
  H   H54       1.0  0.48001  0.83440  0.22093  1.0000
  C   C113      1.0  0.53690  0.81453  0.31701  1.0000
  C   C114      1.0  0.56055  0.78635  0.31295  1.0000
  C   C115      1.0  0.54302  0.78305  0.24673  1.0000
  C   C116      1.0  0.53094  0.79688  0.24801  1.0000
  C   C117      1.0  0.51266  0.79297  0.18464  1.0000
  C   C118      1.0  0.50007  0.80617  0.19027  1.0000
  H   H55       1.0  0.50811  0.78024  0.13476  1.0000
  H   H56       1.0  0.48673  0.80286  0.14409  1.0000
  H   H57       1.0  0.53832  0.76975  0.19884  1.0000
  C   C119      1.0  0.15100  0.64671  0.33608  1.0000
  C   C120      1.0  0.17767  0.69849  0.32340  1.0000
  C   C121      1.0  0.18214  0.68420  0.26037  1.0000
  C   C122      1.0  0.16877  0.65830  0.26797  1.0000
  H   H58       1.0  0.17134  0.64777  0.22161  1.0000
  C   C123      1.0  0.19084  0.72444  0.31795  1.0000
  C   C124      1.0  0.21874  0.77637  0.31370  1.0000
  C   C125      1.0  0.22226  0.76215  0.24797  1.0000
  C   C126      1.0  0.20858  0.73622  0.24928  1.0000
  C   C127      1.0  0.21268  0.72191  0.18623  1.0000
  C   C128      1.0  0.19957  0.69612  0.19172  1.0000
  H   H59       1.0  0.22547  0.73015  0.13656  1.0000
  H   H60       1.0  0.20300  0.68615  0.14564  1.0000
  H   H61       1.0  0.23560  0.77080  0.20025  1.0000
  C   C129      1.0  0.48736  0.34186  0.28256  1.0000
  N   N12       1.0  0.47589  0.31709  0.29154  1.0000
  C   C130      1.0  0.43882  0.24045  0.30488  1.0000
  H   H62       1.0  0.48224  0.34894  0.23068  1.0000
  N   N13       1.0  0.45090  0.26541  0.30357  1.0000
  H   H63       1.0  0.42677  0.23115  0.25422  1.0000
  C   C131      1.0  0.85891  0.51746  0.28291  1.0000
  N   N14       1.0  0.84547  0.52876  0.29220  1.0000
  C   C132      1.0  0.80530  0.56500  0.30541  1.0000
  H   H64       1.0  0.87102  0.52261  0.23071  1.0000
  N   N15       1.0  0.81843  0.55320  0.30430  1.0000
  H   H65       1.0  0.80782  0.57689  0.25442  1.0000
  C   C133      1.0  0.66239  0.14655  0.28291  1.0000
  N   N16       1.0  0.68715  0.15988  0.29220  1.0000
  C   C134      1.0  0.76364  0.19984  0.30537  1.0000
  H   H66       1.0  0.65538  0.13446  0.23068  1.0000
  N   N17       1.0  0.73870  0.18677  0.30429  1.0000
  H   H67       1.0  0.77299  0.19728  0.25437  1.0000
  C   C135      1.0  0.17322  0.48404  0.27203  1.0000
  N   N18       1.0  0.16807  0.50250  0.27940  1.0000
  C   C136      1.0  0.15413  0.56084  0.28869  1.0000
  H   H68       1.0  0.18416  0.48468  0.22021  1.0000
  N   N19       1.0  0.15868  0.54185  0.28870  1.0000
  H   H69       1.0  0.16099  0.57330  0.23754  1.0000
  C   C137      1.0  0.52149  0.69050  0.27227  1.0000
  N   N20       1.0  0.50308  0.66687  0.27970  1.0000
  C   C138      1.0  0.44498  0.59452  0.28876  1.0000
  H   H70       1.0  0.52083  0.70076  0.22039  1.0000
  N   N21       1.0  0.46387  0.61809  0.28894  1.0000
  H   H71       1.0  0.43250  0.58889  0.23765  1.0000
  C   C139      1.0  0.31437  0.83302  0.27275  1.0000
  N   N22       1.0  0.33792  0.83793  0.28003  1.0000
  C   C140      1.0  0.41020  0.85150  0.28868  1.0000
  H   H72       1.0  0.30402  0.82216  0.22090  1.0000
  N   N23       1.0  0.38667  0.84701  0.28895  1.0000
  H   H73       1.0  0.41576  0.84465  0.23737  1.0000
  C   C141      1.0  0.46392  0.16172  0.34743  1.0000
  C   C142      1.0  0.50356  0.15250  0.33393  1.0000
  C   C143      1.0  0.48485  0.14309  0.26740  1.0000
  C   C144      1.0  0.46511  0.14777  0.27530  1.0000
  H   H74       1.0  0.45194  0.14167  0.22634  1.0000
  C   C145      1.0  0.52351  0.14808  0.32811  1.0000
  C   C146      1.0  0.56207  0.13715  0.32227  1.0000
  C   C147      1.0  0.54414  0.12892  0.25355  1.0000
  C   C148      1.0  0.52472  0.13409  0.25561  1.0000
  C   C149      1.0  0.50624  0.12505  0.18926  1.0000
  C   C150      1.0  0.48649  0.12954  0.19505  1.0000
  H   H75       1.0  0.50683  0.11486  0.13685  1.0000
  H   H76       1.0  0.47322  0.12263  0.14649  1.0000
  H   H77       1.0  0.54474  0.11826  0.20281  1.0000
  C   C151      1.0  0.70138  0.53955  0.34806  1.0000
  C   C152      1.0  0.65240  0.50036  0.33463  1.0000
  C   C153      1.0  0.66181  0.51911  0.26826  1.0000
  C   C154      1.0  0.68630  0.53863  0.27613  1.0000
  H   H78       1.0  0.69348  0.55182  0.22724  1.0000
  C   C155      1.0  0.62799  0.48055  0.32866  1.0000
  C   C156      1.0  0.57853  0.44208  0.32229  1.0000
  C   C157      1.0  0.58827  0.46011  0.25388  1.0000
  C   C158      1.0  0.61286  0.47950  0.25619  1.0000
  C   C159      1.0  0.62237  0.49806  0.19016  1.0000
  C   C160      1.0  0.64666  0.51769  0.19608  1.0000
  H   H79       1.0  0.61164  0.49758  0.13778  1.0000
  H   H80       1.0  0.65312  0.53100  0.14766  1.0000
  H   H81       1.0  0.57703  0.45957  0.20313  1.0000
  C   C161      1.0  0.84225  0.30367  0.34805  1.0000
  C   C162      1.0  0.85221  0.35268  0.33438  1.0000
  C   C163      1.0  0.86147  0.34320  0.26802  1.0000
  C   C164      1.0  0.85641  0.31869  0.27600  1.0000
  H   H82       1.0  0.86240  0.31147  0.22718  1.0000
  C   C165      1.0  0.85693  0.37713  0.32838  1.0000
  C   C166      1.0  0.86825  0.42665  0.32224  1.0000
  C   C167      1.0  0.87644  0.41686  0.25370  1.0000
  C   C168      1.0  0.87107  0.39222  0.25595  1.0000
  C   C169      1.0  0.88003  0.38263  0.18987  1.0000
  C   C170      1.0  0.87524  0.35830  0.19580  1.0000
  H   H83       1.0  0.89033  0.39335  0.13752  1.0000
  H   H84       1.0  0.88204  0.35179  0.14742  1.0000
  H   H85       1.0  0.88718  0.42808  0.20299  1.0000
  C   C171      1.0  0.93908  0.50992  0.31330  1.0000
  C   C172      1.0  0.99072  0.53771  0.30739  1.0000
  C   C173      1.0  0.97799  0.51943  0.24118  1.0000
  C   C174      1.0  0.95213  0.50577  0.24484  1.0000
  H   H86       1.0  0.94275  0.49226  0.19834  1.0000
  C   C175      1.0  0.99129  0.51472  0.17566  1.0000
  H   H87       1.0  0.98234  0.50150  0.12791  1.0000
  C   C176      1.0  0.49532  0.42972  0.31341  1.0000
  C   C177      1.0  0.46773  0.45380  0.30753  1.0000
  C   C178      1.0  0.48599  0.45927  0.24132  1.0000
  C   C179      1.0  0.49955  0.44696  0.24498  1.0000
  H   H88       1.0  0.51304  0.45102  0.19845  1.0000
  C   C180      1.0  0.45489  0.46690  0.30894  1.0000
  C   C181      1.0  0.43134  0.49485  0.32030  1.0000
  C   C182      1.0  0.44843  0.49942  0.25105  1.0000
  C   C183      1.0  0.46039  0.48557  0.24440  1.0000
  C   C184      1.0  0.47808  0.49041  0.17744  1.0000
  C   C185      1.0  0.49078  0.47730  0.17579  1.0000
  H   H89       1.0  0.48230  0.50389  0.13083  1.0000
  H   H90       1.0  0.50401  0.48154  0.12812  1.0000
  H   H91       1.0  0.45256  0.51328  0.20608  1.0000
  C   C186      1.0  0.57480  0.06643  0.31351  1.0000
  C   C187      1.0  0.55108  0.01478  0.30721  1.0000
  C   C188      1.0  0.54556  0.02752  0.24094  1.0000
  C   C189      1.0  0.55769  0.05338  0.24479  1.0000
  H   H92       1.0  0.55356  0.06276  0.19829  1.0000
  C   C190      1.0  0.53807  0.98884  0.30858  1.0000
  C   C191      1.0  0.51010  0.93732  0.32020  1.0000
  C   C192      1.0  0.50559  0.94982  0.25072  1.0000
  C   C193      1.0  0.51945  0.97563  0.24393  1.0000
  C   C194      1.0  0.51460  0.98843  0.17681  1.0000
  C   C195      1.0  0.52761  0.01424  0.17523  1.0000
  H   H93       1.0  0.50116  0.97914  0.13008  1.0000
  H   H94       1.0  0.52337  0.02320  0.12743  1.0000
  H   H95       1.0  0.49175  0.94007  0.20570  1.0000
  C   C196      1.0  0.00068  0.02506  0.34789  1.0000
  C   C197      1.0  0.00054  0.98010  0.33624  1.0000
  C   C198      1.0  0.97776  0.97951  0.34402  1.0000
  C   C199      1.0  0.97834  0.00229  0.35052  1.0000
  H   H96       1.0  0.00048  0.96383  0.33122  1.0000
  H   H97       1.0  0.96207  0.00233  0.35448  1.0000
  C   C200      1.0  0.00316  0.23009  0.33634  1.0000
  C   C201      1.0  0.98067  0.20800  0.32455  1.0000
  C   C202      1.0  0.98099  0.18565  0.32498  1.0000
  H   H98       1.0  0.96466  0.16954  0.31838  1.0000
  H   H99       1.0  0.00314  0.24640  0.33735  1.0000
  C   C203      1.0  0.77493  0.79622  0.34691  1.0000
  C   C204      1.0  0.77540  0.77412  0.33645  1.0000
  C   C205      1.0  0.79756  0.77381  0.32490  1.0000
  C   C206      1.0  0.81987  0.79653  0.32577  1.0000
  C   C207      1.0  0.82031  0.81929  0.33465  1.0000
  C   C208      1.0  0.79749  0.81864  0.34412  1.0000
  H   H100      1.0  0.83604  0.79642  0.31925  1.0000
  H   H101      1.0  0.79722  0.83474  0.35006  1.0000
  H   H102      1.0  0.75911  0.75776  0.33722  1.0000
  C   C209      1.0  0.20532  0.97956  0.34294  1.0000
  C   C210      1.0  0.22737  0.00234  0.33566  1.0000
  C   C211      1.0  0.22771  0.02474  0.32156  1.0000
  C   C212      1.0  0.20487  0.02409  0.31657  1.0000
  C   C213      1.0  0.18202  0.00165  0.32171  1.0000
  C   C214      1.0  0.18288  0.97959  0.33395  1.0000
  H   H103      1.0  0.20502  0.04033  0.30824  1.0000
  H   H104      1.0  0.16683  0.96311  0.33704  1.0000
  H   H105      1.0  0.24380  0.00261  0.33971  1.0000
  C   C215      1.0  0.17106  0.44627  0.33236  1.0000
  C   C216      1.0  0.19609  0.45345  0.32192  1.0000
  C   C217      1.0  0.20429  0.43622  0.32068  1.0000
  C   C218      1.0  0.18670  0.41103  0.33133  1.0000
  C   C219      1.0  0.16137  0.40298  0.34228  1.0000
  C   C220      1.0  0.15398  0.42095  0.34305  1.0000
  H   H106      1.0  0.19249  0.39841  0.33164  1.0000
  H   H107      1.0  0.20881  0.47182  0.31856  1.0000
  C   C221      1.0  0.55925  0.72613  0.33239  1.0000
  C   C222      1.0  0.55206  0.74398  0.32207  1.0000
  C   C223      1.0  0.56930  0.76941  0.32071  1.0000
  C   C224      1.0  0.59449  0.77702  0.33126  1.0000
  C   C225      1.0  0.60254  0.75973  0.34212  1.0000
  C   C226      1.0  0.58458  0.73438  0.34288  1.0000
  H   H108      1.0  0.60711  0.79542  0.33154  1.0000
  H   H109      1.0  0.59006  0.72158  0.34864  1.0000
  H   H110      1.0  0.53369  0.73832  0.31876  1.0000
  C   C227      1.0  0.27889  0.83543  0.33343  1.0000
  C   C228      1.0  0.26104  0.81039  0.32336  1.0000
  C   C229      1.0  0.23559  0.80213  0.32160  1.0000
  C   C230      1.0  0.22800  0.81977  0.33142  1.0000
  C   C231      1.0  0.24522  0.84518  0.34196  1.0000
  C   C232      1.0  0.27059  0.85251  0.34348  1.0000
  H   H111      1.0  0.20959  0.81394  0.33121  1.0000
  H   H112      1.0  0.28340  0.87079  0.34902  1.0000
  H   H113      1.0  0.26671  0.79768  0.32042  1.0000
  C   C233      1.0  0.44549  0.16872  0.35107  1.0000
  C   C234      1.0  0.45270  0.19374  0.36207  1.0000
  C   C235      1.0  0.43551  0.20201  0.36349  1.0000
  C   C236      1.0  0.41028  0.18438  0.35303  1.0000
  C   C237      1.0  0.40208  0.15898  0.34196  1.0000
  C   C238      1.0  0.42013  0.15166  0.34039  1.0000
  H   H114      1.0  0.39772  0.19023  0.35273  1.0000
  H   H115      1.0  0.41471  0.13342  0.33387  1.0000
  H   H116      1.0  0.47108  0.20642  0.36539  1.0000
  C   C239      1.0  0.72679  0.55785  0.35185  1.0000
  C   C240      1.0  0.74461  0.55067  0.36331  1.0000
  C   C241      1.0  0.77005  0.56791  0.36416  1.0000
  C   C242      1.0  0.77765  0.59309  0.35269  1.0000
  C   C243      1.0  0.76038  0.60114  0.34107  1.0000
  C   C244      1.0  0.73503  0.58315  0.34027  1.0000
  H   H117      1.0  0.79605  0.60569  0.35195  1.0000
  H   H118      1.0  0.72223  0.58859  0.33348  1.0000
  H   H119      1.0  0.73893  0.53230  0.36730  1.0000
  C   C245      1.0  0.83511  0.27826  0.35200  1.0000
  C   C246      1.0  0.81011  0.26046  0.36344  1.0000
  C   C247      1.0  0.80188  0.23502  0.36423  1.0000
  C   C248      1.0  0.81946  0.22741  0.35264  1.0000
  C   C249      1.0  0.84478  0.24467  0.34100  1.0000
  C   C250      1.0  0.85215  0.27001  0.34038  1.0000
  H   H120      1.0  0.81365  0.20900  0.35178  1.0000
  H   H121      1.0  0.87040  0.28282  0.33360  1.0000
  H   H122      1.0  0.79743  0.26616  0.36745  1.0000
  C   C251      1.0  0.14532  0.60463  0.34295  1.0000
  H   H123      1.0  0.16393  0.61180  0.34779  1.0000
  C   C252      1.0  0.42108  0.51029  0.33139  1.0000
  C   C253      1.0  0.43666  0.53594  0.33867  1.0000
  C   C254      1.0  0.42716  0.55205  0.34596  1.0000
  C   C255      1.0  0.40137  0.54200  0.34315  1.0000
  C   C256      1.0  0.38530  0.51623  0.33873  1.0000
  C   C257      1.0  0.39544  0.50061  0.33351  1.0000
  H   H124      1.0  0.39422  0.55346  0.34781  1.0000
  H   H125      1.0  0.38405  0.48202  0.32668  1.0000
  H   H126      1.0  0.45533  0.54303  0.33808  1.0000
  C   C258      1.0  0.49461  0.91162  0.33140  1.0000
  C   C259      1.0  0.46895  0.90157  0.33850  1.0000
  C   C260      1.0  0.45279  0.87597  0.34570  1.0000
  C   C261      1.0  0.46283  0.86021  0.34294  1.0000
  C   C262      1.0  0.48861  0.86987  0.33880  1.0000
  C   C263      1.0  0.50425  0.89563  0.33363  1.0000
  H   H127      1.0  0.45135  0.84160  0.34756  1.0000
  H   H128      1.0  0.52285  0.90282  0.32692  1.0000
  H   H129      1.0  0.46190  0.91318  0.33786  1.0000
  C   C264      1.0  0.58500  0.09225  0.32241  1.0000
  C   C265      1.0  0.56954  0.10254  0.32091  1.0000
  C   C266      1.0  0.57890  0.12815  0.32747  1.0000
  C   C267      1.0  0.60459  0.14364  0.33819  1.0000
  C   C268      1.0  0.62070  0.13393  0.33853  1.0000
  C   C269      1.0  0.61052  0.10818  0.33160  1.0000
  H   H130      1.0  0.61173  0.16227  0.34145  1.0000
  H   H131      1.0  0.62189  0.10085  0.33221  1.0000
  H   H132      1.0  0.55091  0.09100  0.31642  1.0000
  C   C270      1.0  0.51080  0.41936  0.32227  1.0000
  C   C271      1.0  0.53655  0.43475  0.32100  1.0000
  C   C272      1.0  0.55271  0.42529  0.32737  1.0000
  C   C273      1.0  0.54244  0.39959  0.33797  1.0000
  C   C274      1.0  0.51660  0.38353  0.33829  1.0000
  C   C275      1.0  0.50111  0.39381  0.33136  1.0000
  H   H133      1.0  0.55389  0.39240  0.34114  1.0000
  H   H134      1.0  0.48241  0.38251  0.33191  1.0000
  H   H135      1.0  0.54371  0.45339  0.31675  1.0000
  C   C276      1.0  0.91326  0.49438  0.32210  1.0000
  C   C277      1.0  0.90294  0.46863  0.32071  1.0000
  C   C278      1.0  0.87733  0.45245  0.32719  1.0000
  C   C279      1.0  0.86186  0.46266  0.33786  1.0000
  C   C280      1.0  0.87162  0.48848  0.33831  1.0000
  C   C281      1.0  0.89738  0.50403  0.33129  1.0000
  H   H136      1.0  0.84323  0.45119  0.34112  1.0000
  H   H137      1.0  0.90473  0.52273  0.33193  1.0000
  H   H138      1.0  0.91444  0.46149  0.31636  1.0000
  C   C282      1.0  0.84764  0.86145  0.39469  1.0000
  N   N24       1.0  0.86927  0.88307  0.39345  1.0000
  C   C283      1.0  0.93516  0.95107  0.39969  1.0000
  H   H139      1.0  0.83493  0.85923  0.44195  1.0000
  N   N25       1.0  0.91402  0.92896  0.39595  1.0000
  H   H140      1.0  0.93666  0.96334  0.44764  1.0000
  C   C284      1.0  0.13860  0.98558  0.37095  1.0000
  H   H141      1.0  0.13994  0.97422  0.41666  1.0000
  C   C285      1.0  0.14359  0.37745  0.35215  1.0000
  C   C286      1.0  0.75184  0.79507  0.35908  1.0000
  C   C287      1.0  0.70312  0.78642  0.36468  1.0000
  C   C288      1.0  0.71079  0.77487  0.42862  1.0000
  C   C289      1.0  0.73518  0.77946  0.42505  1.0000
  H   H142      1.0  0.74062  0.77058  0.46907  1.0000
  C   C290      1.0  0.67827  0.78071  0.36289  1.0000
  C   C291      1.0  0.62806  0.76744  0.35198  1.0000
  C   C292      1.0  0.63620  0.75712  0.41860  1.0000
  C   C293      1.0  0.66114  0.76351  0.42495  1.0000
  C   C294      1.0  0.66917  0.75271  0.48965  1.0000
  C   C295      1.0  0.69380  0.75835  0.49150  1.0000
  H   H143      1.0  0.65704  0.74020  0.53448  1.0000
  H   H144      1.0  0.69903  0.74976  0.53744  1.0000
  H   H145      1.0  0.62377  0.74462  0.46279  1.0000
  C   C296      1.0  0.20684  0.95770  0.35605  1.0000
  C   C297      1.0  0.21691  0.91832  0.36106  1.0000
  C   C298      1.0  0.22822  0.93772  0.42446  1.0000
  C   C299      1.0  0.22285  0.95704  0.42139  1.0000
  H   H146      1.0  0.23158  0.97142  0.46521  1.0000
  C   C300      1.0  0.22326  0.89957  0.35938  1.0000
  C   C301      1.0  0.23740  0.86304  0.35026  1.0000
  C   C302      1.0  0.24775  0.88199  0.41520  1.0000
  C   C303      1.0  0.24090  0.90026  0.42078  1.0000
  C   C304      1.0  0.25157  0.91936  0.48454  1.0000
  C   C305      1.0  0.24527  0.93790  0.48641  1.0000
  H   H147      1.0  0.26436  0.92020  0.52903  1.0000
  H   H148      1.0  0.25369  0.95183  0.53205  1.0000
  H   H149      1.0  0.26050  0.88252  0.45927  1.0000
  C   C306      1.0  0.25943  0.06666  0.37234  1.0000
  N   N26       1.0  0.28340  0.08499  0.37176  1.0000
  C   C307      1.0  0.35809  0.14088  0.38800  1.0000
  H   H150      1.0  0.24804  0.06680  0.42092  1.0000
  N   N27       1.0  0.33409  0.12302  0.38005  1.0000
  H   H151      1.0  0.36270  0.15361  0.43774  1.0000
  C   C308      1.0  0.80820  0.74250  0.37413  1.0000
  N   N28       1.0  0.80314  0.71876  0.37201  1.0000
  C   C309      1.0  0.78576  0.64496  0.38696  1.0000
  H   H152      1.0  0.81928  0.75372  0.42396  1.0000
  N   N29       1.0  0.79155  0.66882  0.37883  1.0000
  H   H153      1.0  0.79365  0.64043  0.43780  1.0000
  C   C310      1.0  0.93873  0.19735  0.37410  1.0000
  N   N30       1.0  0.91998  0.20230  0.37192  1.0000
  C   C311      1.0  0.86335  0.21939  0.38678  1.0000
  H   H154      1.0  0.93885  0.18619  0.42367  1.0000
  N   N31       1.0  0.88148  0.21369  0.37868  1.0000
  H   H155      1.0  0.85093  0.21145  0.43759  1.0000
  C   C312      1.0  0.34398  0.48699  0.39635  1.0000
  N   N32       1.0  0.31919  0.47554  0.38803  1.0000
  C   C313      1.0  0.24262  0.43908  0.37770  1.0000
  H   H156      1.0  0.35125  0.48164  0.44693  1.0000
  N   N33       1.0  0.26756  0.45096  0.37800  1.0000
  H   H157      1.0  0.23338  0.42711  0.42863  1.0000
  C   C314      1.0  0.51793  0.85788  0.39664  1.0000
  N   N34       1.0  0.52950  0.84465  0.38831  1.0000
  C   C315      1.0  0.56628  0.80480  0.37789  1.0000
  H   H158      1.0  0.52321  0.87048  0.44727  1.0000
  N   N35       1.0  0.55432  0.81779  0.37823  1.0000
  H   H159      1.0  0.57827  0.80757  0.42883  1.0000
  C   C316      1.0  0.14744  0.66197  0.39661  1.0000
  N   N36       1.0  0.16066  0.68678  0.38862  1.0000
  C   C317      1.0  0.20023  0.76354  0.37834  1.0000
  N   N37       1.0  0.18739  0.73857  0.37879  1.0000
  H   H160      1.0  0.19732  0.77270  0.42909  1.0000
  C   C318      1.0  0.50585  0.35746  0.34366  1.0000
  C   C319      1.0  0.48107  0.30567  0.35811  1.0000
  C   C320      1.0  0.49963  0.32022  0.42138  1.0000
  C   C321      1.0  0.51196  0.34612  0.41297  1.0000
  H   H161      1.0  0.52494  0.35682  0.45937  1.0000
  C   C322      1.0  0.46840  0.27972  0.36436  1.0000
  C   C323      1.0  0.44446  0.22781  0.37046  1.0000
  C   C324      1.0  0.46217  0.24223  0.43599  1.0000
  C   C325      1.0  0.47435  0.26817  0.43386  1.0000
  C   C326      1.0  0.49265  0.28272  0.49695  1.0000
  C   C327      1.0  0.50514  0.30851  0.49085  1.0000
  H   H162      1.0  0.49721  0.27466  0.54723  1.0000
  H   H163      1.0  0.51843  0.31865  0.53707  1.0000
  H   H164      1.0  0.46686  0.23373  0.48428  1.0000
  C   C328      1.0  0.85627  0.49911  0.34414  1.0000
  C   C329      1.0  0.82898  0.52349  0.35925  1.0000
  C   C330      1.0  0.82524  0.50507  0.42274  1.0000
  C   C331      1.0  0.83896  0.49293  0.41400  1.0000
  H   H165      1.0  0.83688  0.48003  0.46046  1.0000
  C   C332      1.0  0.81550  0.53592  0.36556  1.0000
  C   C333      1.0  0.78703  0.55920  0.37117  1.0000
  C   C334      1.0  0.78401  0.54173  0.43723  1.0000
  C   C335      1.0  0.79806  0.52987  0.43534  1.0000
  C   C336      1.0  0.79461  0.51176  0.49878  1.0000
  C   C337      1.0  0.80812  0.49949  0.49261  1.0000
  H   H166      1.0  0.78203  0.50714  0.54926  1.0000
  H   H167      1.0  0.80517  0.48629  0.53898  1.0000
  H   H168      1.0  0.77086  0.53701  0.48568  1.0000
  C   C338      1.0  0.64673  0.14927  0.34416  1.0000
  C   C339      1.0  0.69845  0.17634  0.35930  1.0000
  C   C340      1.0  0.68382  0.18013  0.42287  1.0000
  C   C341      1.0  0.65794  0.16652  0.41413  1.0000
  H   H169      1.0  0.64717  0.16865  0.46065  1.0000
  C   C342      1.0  0.72437  0.18972  0.36560  1.0000
  C   C343      1.0  0.77617  0.21808  0.37119  1.0000
  C   C344      1.0  0.76174  0.22110  0.43736  1.0000
  C   C345      1.0  0.73583  0.20713  0.43544  1.0000
  C   C346      1.0  0.72121  0.21062  0.49899  1.0000
  C   C347      1.0  0.69543  0.19720  0.49284  1.0000
  H   H170      1.0  0.72921  0.22317  0.54952  1.0000
  H   H171      1.0  0.68522  0.20020  0.53925  1.0000
  H   H172      1.0  0.77020  0.23424  0.48585  1.0000
  C   C348      1.0  0.16392  0.46458  0.33493  1.0000
  C   C349      1.0  0.15392  0.50367  0.34578  1.0000
  C   C350      1.0  0.14365  0.48453  0.41054  1.0000
  C   C351      1.0  0.14878  0.46508  0.40406  1.0000
  H   H173      1.0  0.14210  0.45161  0.45199  1.0000
  C   C352      1.0  0.14929  0.52346  0.35049  1.0000
  C   C353      1.0  0.13842  0.56197  0.35381  1.0000
  C   C354      1.0  0.54096  0.70069  0.33513  1.0000
  C   C355      1.0  0.50197  0.65159  0.34614  1.0000
  C   C356      1.0  0.52111  0.66051  0.41089  1.0000
  C   C357      1.0  0.54051  0.68510  0.40434  1.0000
  H   H174      1.0  0.55399  0.69192  0.45220  1.0000
  C   C358      1.0  0.48224  0.62713  0.35080  1.0000
  C   C359      1.0  0.44395  0.57771  0.35377  1.0000
  C   C360      1.0  0.46247  0.58669  0.42033  1.0000
  C   C361      1.0  0.48175  0.61136  0.41988  1.0000
  C   C362      1.0  0.50072  0.62036  0.48430  1.0000
  C   C363      1.0  0.52019  0.64477  0.48004  1.0000
  H   H175      1.0  0.50064  0.60918  0.53430  1.0000
  H   H176      1.0  0.53381  0.65085  0.52721  1.0000
  H   H177      1.0  0.46236  0.57491  0.46803  1.0000
  C   C364      1.0  0.30435  0.84246  0.33573  1.0000
  C   C365      1.0  0.35333  0.85194  0.34646  1.0000
  C   C366      1.0  0.34458  0.86229  0.41138  1.0000
  C   C367      1.0  0.32008  0.85744  0.40495  1.0000
  H   H178      1.0  0.31340  0.86419  0.45298  1.0000
  C   C368      1.0  0.37773  0.85640  0.35097  1.0000
  C   C369      1.0  0.42711  0.86718  0.35367  1.0000
  C   C370      1.0  0.41822  0.87677  0.42039  1.0000
  C   C371      1.0  0.39360  0.87155  0.42012  1.0000
  C   C372      1.0  0.38474  0.88161  0.48477  1.0000
  C   C373      1.0  0.36042  0.87694  0.48063  1.0000
  H   H179      1.0  0.39599  0.89261  0.53484  1.0000
  H   H180      1.0  0.35447  0.88456  0.52798  1.0000
  H   H181      1.0  0.43005  0.88835  0.46817  1.0000
  C   C374      1.0  0.48307  0.17040  0.41152  1.0000
  N   N38       1.0  0.50176  0.16559  0.40297  1.0000
  C   C375      1.0  0.56037  0.15174  0.39077  1.0000
  H   H182      1.0  0.48328  0.18060  0.46519  1.0000
  N   N39       1.0  0.54141  0.15636  0.39181  1.0000
  H   H183      1.0  0.57238  0.15770  0.44338  1.0000
  C   C376      1.0  0.69079  0.52042  0.41214  1.0000
  N   N40       1.0  0.66722  0.50192  0.40356  1.0000
  C   C377      1.0  0.59475  0.44367  0.39084  1.0000
  H   H184      1.0  0.70074  0.52008  0.46573  1.0000
  N   N41       1.0  0.61834  0.46260  0.39213  1.0000
  H   H185      1.0  0.58864  0.43162  0.44332  1.0000
  C   C378      1.0  0.83376  0.31432  0.41205  1.0000
  N   N42       1.0  0.83892  0.33792  0.40338  1.0000
  C   C379      1.0  0.85353  0.41047  0.39073  1.0000
  H   H186      1.0  0.82347  0.30442  0.46571  1.0000
  N   N43       1.0  0.84871  0.38683  0.39191  1.0000
  H   H187      1.0  0.84761  0.41661  0.44315  1.0000
  C   C380      1.0  0.95275  0.52889  0.37546  1.0000
  N   N44       1.0  0.97764  0.54169  0.37110  1.0000
  H   H188      1.0  0.94432  0.53238  0.42730  1.0000
  C   C381      1.0  0.47640  0.42455  0.37563  1.0000
  N   N45       1.0  0.46368  0.43672  0.37123  1.0000
  C   C382      1.0  0.42602  0.47551  0.38060  1.0000
  H   H189      1.0  0.47282  0.41256  0.42734  1.0000
  N   N46       1.0  0.43800  0.46264  0.37367  1.0000
  H   H190      1.0  0.41409  0.47172  0.43268  1.0000
  C   C383      1.0  0.58012  0.05276  0.37558  1.0000
  N   N47       1.0  0.56808  0.02787  0.37107  1.0000
  C   C384      1.0  0.52944  0.95137  0.38047  1.0000
  H   H191      1.0  0.59201  0.06120  0.42752  1.0000
  N   N48       1.0  0.54230  0.97622  0.37348  1.0000
  H   H192      1.0  0.53319  0.94324  0.43273  1.0000
