data_image0
_chemical_formula_structural       NCHC2NC2OH3C2NC2OH3C2NC2OH3NCHNCHNCHNCHC2NC2OH3C2NC2OH3NCHC2NC2OH3C2NC2OH3C2NC2OH3NCHNCHNCHNCHC2NC2OH3C2NC2OH3NCHNCHC2NC2OH3C2NC2OH3NCHNCHC2NC2OH3C2NC2OH3NCHNCHC2NC2OH3C2NC2OH3NCHNCHC2NC2OH3C2NC2OH3C6H3C6H3C6H3C6H3C6H3C6H3C6H3C6H3C6H3C6H3C6H3C6H3C6H3C6H3C6H3C6H3C6H3C6H3C6H3C6H3C6H3C6H3C6H3C6H3C2NC2OH3NCHNCHNCHC2NC2OH3C2NC2OH3C2NC2OH3C2NC2OH3NCHNCHC2NC2OH3NCHNCHNCHC2NC2OH3C2NC2OH3C2NC2OH3C2NC2OH3NCHNCHC2NC2OH3C2NC2OH3NCHNCHC2NC2OH3C2NC2OH3NCHNCHC2NC2OH3C2NC2OH3NCHNCHC2NC2OH3C2NC2OH3NCHNCH
_chemical_formula_sum              "N72 C324 H216 O36"
_cell_length_a       42.5043
_cell_length_b       54.0442
_cell_length_c       14.8524
_cell_angle_alpha    90
_cell_angle_beta     90
_cell_angle_gamma    90

_space_group_name_H-M_alt    "P 1"
_space_group_IT_number       1

loop_
  _space_group_symop_operation_xyz
  'x, y, z'

loop_
  _atom_site_type_symbol
  _atom_site_label
  _atom_site_symmetry_multiplicity
  _atom_site_fract_x
  _atom_site_fract_y
  _atom_site_fract_z
  _atom_site_occupancy
  N   N1        1.0  0.49906  0.98482  0.30135  1.0000
  C   C1        1.0  0.47888  0.00433  0.29701  1.0000
  H   H1        1.0  0.46004  0.00344  0.25443  1.0000
  C   C2        1.0  0.98444  0.48385  0.33319  1.0000
  C   C3        1.0  0.02476  0.52572  0.33809  1.0000
  N   N2        1.0  0.99878  0.52461  0.28472  1.0000
  C   C4        1.0  0.97857  0.50506  0.27850  1.0000
  C   C5        1.0  0.95347  0.50714  0.20937  1.0000
  O   O1        1.0  0.95303  0.48642  0.14912  1.0000
  H   H2        1.0  0.95623  0.52410  0.16979  1.0000
  H   H3        1.0  0.93068  0.50845  0.24239  1.0000
  H   H4        1.0  0.97271  0.48652  0.11414  1.0000
  C   C6        1.0  0.31551  0.07491  0.32550  1.0000
  C   C7        1.0  0.38127  0.06845  0.33239  1.0000
  N   N3        1.0  0.36708  0.08219  0.26741  1.0000
  C   C8        1.0  0.33550  0.08569  0.25930  1.0000
  C   C9        1.0  0.32449  0.09991  0.17968  1.0000
  O   O2        1.0  0.30117  0.08667  0.12926  1.0000
  H   H5        1.0  0.34416  0.10447  0.13509  1.0000
  H   H6        1.0  0.31430  0.11739  0.20142  1.0000
  H   H7        1.0  0.31112  0.07185  0.10321  1.0000
  C   C10       1.0  0.69457  0.93390  0.32822  1.0000
  C   C11       1.0  0.62877  0.94006  0.33545  1.0000
  N   N4        1.0  0.64299  0.92636  0.27044  1.0000
  C   C12       1.0  0.67460  0.92299  0.26223  1.0000
  C   C13       1.0  0.68566  0.90883  0.18254  1.0000
  O   O3        1.0  0.70882  0.92221  0.13197  1.0000
  H   H8        1.0  0.66598  0.90417  0.13809  1.0000
  H   H9        1.0  0.69602  0.89141  0.20420  1.0000
  H   H10       1.0  0.69872  0.93697  0.10600  1.0000
  N   N5        1.0  0.18035  0.56073  0.29662  1.0000
  C   C14       1.0  0.14874  0.55661  0.29181  1.0000
  H   H11       1.0  0.13986  0.54647  0.23959  1.0000
  N   N6        1.0  0.82951  0.44804  0.29395  1.0000
  C   C15       1.0  0.86114  0.45207  0.28911  1.0000
  H   H12       1.0  0.87004  0.46221  0.23693  1.0000
  N   N7        1.0  0.46581  0.13473  0.28656  1.0000
  C   C16       1.0  0.47507  0.15869  0.28069  1.0000
  H   H13       1.0  0.46421  0.17011  0.23552  1.0000
  N   N8        1.0  0.54368  0.87453  0.28542  1.0000
  C   C17       1.0  0.53445  0.85056  0.27922  1.0000
  H   H14       1.0  0.54541  0.83917  0.23411  1.0000
  C   C18       1.0  0.03171  0.61765  0.34252  1.0000
  C   C19       1.0  0.01064  0.66726  0.34891  1.0000
  N   N9        1.0  0.99824  0.65042  0.29086  1.0000
  C   C20       1.0  0.00724  0.62620  0.28461  1.0000
  C   C21       1.0  0.99268  0.61152  0.21114  1.0000
  O   O4        1.0  0.01564  0.60091  0.15192  1.0000
  H   H15       1.0  0.97651  0.62290  0.17141  1.0000
  H   H16       1.0  0.97871  0.59667  0.24026  1.0000
  H   H17       1.0  0.02652  0.61446  0.12037  1.0000
  C   C22       1.0  0.97879  0.39159  0.34372  1.0000
  C   C23       1.0  0.99970  0.34193  0.35046  1.0000
  N   N10       1.0  0.01220  0.35873  0.29243  1.0000
  C   C24       1.0  0.00326  0.38296  0.28597  1.0000
  C   C25       1.0  0.01795  0.39761  0.21265  1.0000
  O   O5        1.0  0.99510  0.40826  0.15315  1.0000
  H   H18       1.0  0.03415  0.38620  0.17312  1.0000
  H   H19       1.0  0.03191  0.41245  0.24196  1.0000
  H   H20       1.0  0.98423  0.39472  0.12150  1.0000
  N   N11       1.0  0.52710  0.49526  0.29830  1.0000
  C   C26       1.0  0.49734  0.48616  0.29219  1.0000
  H   H21       1.0  0.49259  0.47257  0.24635  1.0000
  C   C27       1.0  0.97378  0.01359  0.33076  1.0000
  C   C28       1.0  0.03648  0.99632  0.33947  1.0000
  N   N12       1.0  0.02735  0.01417  0.28064  1.0000
  C   C29       1.0  0.99754  0.02325  0.27264  1.0000
  C   C30       1.0  0.99217  0.04108  0.19808  1.0000
  O   O6        1.0  0.96669  0.03377  0.14067  1.0000
  H   H22       1.0  0.01339  0.04325  0.15705  1.0000
  H   H23       1.0  0.98689  0.05925  0.22580  1.0000
  H   H24       1.0  0.97268  0.01832  0.10997  1.0000
  C   C31       1.0  0.38148  0.37717  0.34104  1.0000
  C   C32       1.0  0.39589  0.42818  0.34859  1.0000
  N   N13       1.0  0.37379  0.41890  0.29173  1.0000
  C   C33       1.0  0.36573  0.39455  0.28455  1.0000
  C   C34       1.0  0.34314  0.38822  0.21185  1.0000
  O   O7        1.0  0.35497  0.36943  0.15271  1.0000
  H   H25       1.0  0.33719  0.40458  0.17183  1.0000
  H   H26       1.0  0.32125  0.38172  0.24157  1.0000
  H   H27       1.0  0.37333  0.37616  0.12052  1.0000
  C   C35       1.0  0.62878  0.63212  0.34189  1.0000
  C   C36       1.0  0.61467  0.58109  0.35054  1.0000
  N   N14       1.0  0.63659  0.59034  0.29308  1.0000
  C   C37       1.0  0.64448  0.61472  0.28536  1.0000
  C   C38       1.0  0.66692  0.62106  0.21228  1.0000
  O   O8        1.0  0.65484  0.63971  0.15299  1.0000
  H   H28       1.0  0.67292  0.60467  0.17249  1.0000
  H   H29       1.0  0.68880  0.62770  0.24162  1.0000
  H   H30       1.0  0.63649  0.63285  0.12115  1.0000
  N   N15       1.0  0.10590  0.88649  0.28973  1.0000
  C   C39       1.0  0.09803  0.91080  0.28379  1.0000
  H   H31       1.0  0.08098  0.91611  0.23930  1.0000
  N   N16       1.0  0.90354  0.12281  0.28832  1.0000
  C   C40       1.0  0.91126  0.09849  0.28187  1.0000
  H   H32       1.0  0.92819  0.09320  0.23699  1.0000
  N   N17       1.0  0.33298  0.55168  0.29574  1.0000
  C   C41       1.0  0.35839  0.53643  0.29164  1.0000
  H   H33       1.0  0.37627  0.54050  0.24811  1.0000
  N   N18       1.0  0.67656  0.45738  0.29496  1.0000
  C   C42       1.0  0.65111  0.47262  0.29180  1.0000
  H   H34       1.0  0.63303  0.46855  0.24892  1.0000
  C   C43       1.0  0.20264  0.04824  0.33696  1.0000
  C   C44       1.0  0.15090  0.01499  0.34075  1.0000
  N   N19       1.0  0.17617  0.01164  0.28589  1.0000
  C   C45       1.0  0.20171  0.02692  0.28031  1.0000
  C   C46       1.0  0.22497  0.02079  0.20913  1.0000
  O   O9        1.0  0.23125  0.04130  0.15058  1.0000
  H   H35       1.0  0.21691  0.00516  0.16832  1.0000
  H   H36       1.0  0.24691  0.01500  0.24043  1.0000
  H   H37       1.0  0.21186  0.04515  0.11711  1.0000
  C   C47       1.0  0.80745  0.96082  0.33867  1.0000
  C   C48       1.0  0.85923  0.99408  0.34066  1.0000
  N   N20       1.0  0.83371  0.99740  0.28672  1.0000
  C   C49       1.0  0.80817  0.98213  0.28193  1.0000
  C   C50       1.0  0.78461  0.98833  0.21163  1.0000
  O   O10       1.0  0.77799  0.96784  0.15326  1.0000
  H   H38       1.0  0.79254  0.00395  0.17055  1.0000
  H   H39       1.0  0.76284  0.99417  0.24375  1.0000
  H   H40       1.0  0.79722  0.96395  0.11908  1.0000
  N   N21       1.0  0.21030  0.14599  0.29854  1.0000
  C   C51       1.0  0.20131  0.17012  0.29446  1.0000
  H   H41       1.0  0.18559  0.17558  0.24635  1.0000
  N   N22       1.0  0.79993  0.86312  0.30049  1.0000
  C   C52       1.0  0.80895  0.83900  0.29610  1.0000
  H   H42       1.0  0.82455  0.83358  0.24759  1.0000
  C   C53       1.0  0.27803  0.63693  0.32868  1.0000
  C   C54       1.0  0.29418  0.68739  0.33406  1.0000
  N   N23       1.0  0.27319  0.67826  0.27362  1.0000
  C   C55       1.0  0.26467  0.65406  0.26663  1.0000
  C   C56       1.0  0.24342  0.64753  0.19084  1.0000
  O   O11       1.0  0.25578  0.62779  0.13690  1.0000
  H   H43       1.0  0.23913  0.66359  0.14760  1.0000
  H   H44       1.0  0.22063  0.64183  0.21700  1.0000
  H   H45       1.0  0.27506  0.63372  0.10714  1.0000
  C   C57       1.0  0.73151  0.37211  0.32633  1.0000
  C   C58       1.0  0.71538  0.32168  0.33252  1.0000
  N   N24       1.0  0.73628  0.33074  0.27170  1.0000
  C   C59       1.0  0.74478  0.35493  0.26428  1.0000
  C   C60       1.0  0.76598  0.36139  0.18829  1.0000
  O   O12       1.0  0.75363  0.38112  0.13432  1.0000
  H   H46       1.0  0.77017  0.34530  0.14513  1.0000
  H   H47       1.0  0.78880  0.36706  0.21425  1.0000
  H   H48       1.0  0.73430  0.37522  0.10474  1.0000
  N   N25       1.0  0.30871  0.28340  0.28031  1.0000
  C   C61       1.0  0.28353  0.26815  0.27600  1.0000
  H   H49       1.0  0.28318  0.25423  0.22943  1.0000
  N   N26       1.0  0.70148  0.72582  0.28036  1.0000
  C   C62       1.0  0.72670  0.74103  0.27611  1.0000
  H   H50       1.0  0.72714  0.75491  0.22939  1.0000
  C   C63       1.0  0.19801  0.80249  0.34700  1.0000
  C   C64       1.0  0.25116  0.77168  0.34892  1.0000
  N   N27       1.0  0.24824  0.79068  0.28943  1.0000
  C   C65       1.0  0.22310  0.80634  0.28519  1.0000
  C   C66       1.0  0.22279  0.82462  0.21070  1.0000
  O   O13       1.0  0.19577  0.82197  0.15375  1.0000
  H   H51       1.0  0.24405  0.82303  0.16949  1.0000
  H   H52       1.0  0.22276  0.84321  0.23901  1.0000
  H   H53       1.0  0.19718  0.80588  0.12292  1.0000
  C   C67       1.0  0.81182  0.20682  0.34663  1.0000
  C   C68       1.0  0.75859  0.23751  0.34848  1.0000
  N   N28       1.0  0.76165  0.21862  0.28860  1.0000
  C   C69       1.0  0.78686  0.20304  0.28431  1.0000
  C   C70       1.0  0.78734  0.18487  0.20950  1.0000
  O   O14       1.0  0.81447  0.18762  0.15301  1.0000
  H   H54       1.0  0.76616  0.18650  0.16798  1.0000
  H   H55       1.0  0.78734  0.16624  0.23744  1.0000
  H   H56       1.0  0.81309  0.20375  0.12246  1.0000
  N   N29       1.0  0.45011  0.25539  0.28327  1.0000
  C   C71       1.0  0.42706  0.27249  0.27417  1.0000
  H   H57       1.0  0.41103  0.27059  0.22331  1.0000
  N   N30       1.0  0.55985  0.75379  0.28233  1.0000
  C   C72       1.0  0.58296  0.73671  0.27358  1.0000
  H   H58       1.0  0.59901  0.73859  0.22276  1.0000
  C   C73       1.0  0.03778  0.75598  0.33693  1.0000
  C   C74       1.0  0.08453  0.79225  0.35025  1.0000
  N   N31       1.0  0.06278  0.79272  0.28332  1.0000
  C   C75       1.0  0.03921  0.77581  0.27390  1.0000
  C   C76       1.0  0.01869  0.77820  0.19351  1.0000
  O   O15       1.0  0.01856  0.75619  0.13964  1.0000
  H   H59       1.0  0.02600  0.79385  0.15164  1.0000
  H   H60       1.0  0.99467  0.78195  0.21498  1.0000
  H   H61       1.0  0.03977  0.75392  0.11427  1.0000
  C   C77       1.0  0.97219  0.25324  0.33809  1.0000
  C   C78       1.0  0.92535  0.21699  0.35087  1.0000
  N   N32       1.0  0.94711  0.21659  0.28395  1.0000
  C   C79       1.0  0.97070  0.23349  0.27476  1.0000
  C   C80       1.0  0.99126  0.23114  0.19440  1.0000
  O   O16       1.0  0.99149  0.25321  0.14088  1.0000
  H   H62       1.0  0.98389  0.21556  0.15226  1.0000
  H   H63       1.0  0.01525  0.22730  0.21589  1.0000
  H   H64       1.0  0.97031  0.25557  0.11548  1.0000
  N   N33       1.0  0.10298  0.28517  0.29253  1.0000
  C   C81       1.0  0.13334  0.27749  0.28643  1.0000
  H   H65       1.0  0.14712  0.28387  0.23505  1.0000
  N   N34       1.0  0.90712  0.72394  0.29160  1.0000
  C   C82       1.0  0.87675  0.73163  0.28588  1.0000
  H   H66       1.0  0.86296  0.72539  0.23428  1.0000
  C   C83       1.0  0.42726  0.77728  0.32917  1.0000
  C   C84       1.0  0.36547  0.75957  0.33865  1.0000
  N   N35       1.0  0.38553  0.75214  0.27294  1.0000
  C   C85       1.0  0.41569  0.76016  0.26421  1.0000
  C   C86       1.0  0.43343  0.75133  0.18421  1.0000
  O   O17       1.0  0.44612  0.77140  0.13264  1.0000
  H   H67       1.0  0.41844  0.74003  0.14056  1.0000
  H   H68       1.0  0.45281  0.73957  0.20564  1.0000
  H   H69       1.0  0.42849  0.78087  0.10689  1.0000
  C   C87       1.0  0.58251  0.23166  0.32989  1.0000
  C   C88       1.0  0.64426  0.24943  0.33876  1.0000
  N   N36       1.0  0.62418  0.25672  0.27289  1.0000
  C   C89       1.0  0.59404  0.24866  0.26444  1.0000
  C   C90       1.0  0.57622  0.25735  0.18441  1.0000
  O   O18       1.0  0.56349  0.23720  0.13335  1.0000
  H   H70       1.0  0.59116  0.26859  0.14042  1.0000
  H   H71       1.0  0.55684  0.26914  0.20574  1.0000
  H   H72       1.0  0.58112  0.22770  0.10765  1.0000
  C   C91       1.0  0.46374  0.09366  0.34487  1.0000
  C   C92       1.0  0.43054  0.09179  0.33886  1.0000
  C   C93       1.0  0.41473  0.06874  0.33869  1.0000
  C   C94       1.0  0.43301  0.04686  0.34336  1.0000
  C   C95       1.0  0.46639  0.04771  0.34668  1.0000
  C   C96       1.0  0.48113  0.07129  0.34755  1.0000
  H   H73       1.0  0.42179  0.03010  0.34314  1.0000
  H   H74       1.0  0.50512  0.07212  0.34503  1.0000
  H   H75       1.0  0.41740  0.10769  0.33716  1.0000
  C   C97       1.0  0.54592  0.91548  0.34491  1.0000
  C   C98       1.0  0.57917  0.91702  0.34071  1.0000
  C   C99       1.0  0.59530  0.93990  0.34158  1.0000
  C   C100      1.0  0.57731  0.96189  0.34681  1.0000
  C   C101      1.0  0.54392  0.96150  0.35102  1.0000
  C   C102      1.0  0.52887  0.93802  0.34799  1.0000
  H   H76       1.0  0.58880  0.97840  0.34143  1.0000
  H   H77       1.0  0.50487  0.93737  0.34643  1.0000
  H   H78       1.0  0.59211  0.90102  0.33876  1.0000
  C   C103      1.0  0.04622  0.59366  0.34165  1.0000
  C   C104      1.0  0.07941  0.59179  0.34772  1.0000
  C   C105      1.0  0.09521  0.56874  0.34787  1.0000
  C   C106      1.0  0.07694  0.54686  0.34318  1.0000
  C   C107      1.0  0.04355  0.54772  0.33989  1.0000
  C   C108      1.0  0.02882  0.57130  0.33898  1.0000
  H   H79       1.0  0.08815  0.53010  0.34343  1.0000
  H   H80       1.0  0.00483  0.57213  0.34150  1.0000
  H   H81       1.0  0.09256  0.60769  0.34935  1.0000
  C   C109      1.0  0.96402  0.41549  0.34166  1.0000
  C   C110      1.0  0.93077  0.41703  0.34590  1.0000
  C   C111      1.0  0.91464  0.43991  0.34502  1.0000
  C   C112      1.0  0.93263  0.46190  0.33985  1.0000
  C   C113      1.0  0.96602  0.46151  0.33563  1.0000
  C   C114      1.0  0.98107  0.43803  0.33863  1.0000
  H   H82       1.0  0.92112  0.47841  0.34517  1.0000
  H   H83       1.0  0.00507  0.43738  0.34015  1.0000
  H   H84       1.0  0.91784  0.40102  0.34776  1.0000
  C   C115      1.0  0.44153  0.48815  0.34607  1.0000
  C   C116      1.0  0.43421  0.46259  0.34721  1.0000
  C   C117      1.0  0.40273  0.45402  0.34833  1.0000
  C   C118      1.0  0.37819  0.47178  0.34723  1.0000
  C   C119      1.0  0.38441  0.49756  0.34609  1.0000
  C   C120      1.0  0.41631  0.50533  0.34629  1.0000
  H   H85       1.0  0.35531  0.46580  0.34736  1.0000
  H   H86       1.0  0.42130  0.52387  0.34654  1.0000
  H   H87       1.0  0.45219  0.44998  0.34747  1.0000
  C   C121      1.0  0.56840  0.52141  0.35323  1.0000
  C   C122      1.0  0.57623  0.54686  0.35140  1.0000
  C   C123      1.0  0.60775  0.55526  0.35089  1.0000
  C   C124      1.0  0.63204  0.53733  0.34896  1.0000
  C   C125      1.0  0.62547  0.51161  0.34708  1.0000
  C   C126      1.0  0.59345  0.50408  0.34856  1.0000
  H   H88       1.0  0.65498  0.54317  0.34812  1.0000
  H   H89       1.0  0.58830  0.48557  0.34991  1.0000
  H   H90       1.0  0.55860  0.55964  0.34632  1.0000
  C   C127      1.0  0.06842  0.98814  0.34041  1.0000
  C   C128      1.0  0.07573  0.96259  0.33927  1.0000
  C   C129      1.0  0.10722  0.95402  0.33817  1.0000
  C   C130      1.0  0.13176  0.97178  0.33929  1.0000
  C   C131      1.0  0.12553  0.99757  0.34043  1.0000
  C   C132      1.0  0.09363  0.00534  0.34021  1.0000
  H   H91       1.0  0.15464  0.96581  0.33916  1.0000
  H   H92       1.0  0.08863  0.02388  0.33995  1.0000
  H   H93       1.0  0.05776  0.94997  0.33900  1.0000
  C   C133      1.0  0.94155  0.02141  0.33333  1.0000
  C   C134      1.0  0.93372  0.04686  0.33517  1.0000
  C   C135      1.0  0.90220  0.05526  0.33568  1.0000
  C   C136      1.0  0.87791  0.03734  0.33760  1.0000
  C   C137      1.0  0.88448  0.01161  0.33945  1.0000
  C   C138      1.0  0.91649  0.00407  0.33792  1.0000
  H   H94       1.0  0.85497  0.04317  0.33846  1.0000
  H   H95       1.0  0.92165  0.98557  0.33661  1.0000
  H   H96       1.0  0.95135  0.05964  0.34028  1.0000
  C   C139      1.0  0.24071  0.11153  0.35045  1.0000
  C   C140      1.0  0.27271  0.10500  0.34144  1.0000
  C   C141      1.0  0.28267  0.08017  0.33329  1.0000
  C   C142      1.0  0.25942  0.06140  0.33641  1.0000
  C   C143      1.0  0.22672  0.06700  0.33886  1.0000
  C   C144      1.0  0.21806  0.09236  0.34603  1.0000
  H   H97       1.0  0.26666  0.04341  0.33639  1.0000
  H   H98       1.0  0.19473  0.09705  0.34920  1.0000
  H   H99       1.0  0.28926  0.11871  0.34067  1.0000
  C   C145      1.0  0.76953  0.89749  0.35293  1.0000
  C   C146      1.0  0.73750  0.90395  0.34415  1.0000
  C   C147      1.0  0.72745  0.92875  0.33602  1.0000
  C   C148      1.0  0.75065  0.94756  0.33898  1.0000
  C   C149      1.0  0.78339  0.94204  0.34117  1.0000
  C   C150      1.0  0.79212  0.91670  0.34832  1.0000
  H   H100      1.0  0.74333  0.96553  0.33893  1.0000
  H   H101      1.0  0.81546  0.91205  0.35122  1.0000
  H   H102      1.0  0.72100  0.89020  0.34347  1.0000
  C   C151      1.0  0.26924  0.61152  0.33610  1.0000
  C   C152      1.0  0.23723  0.60499  0.34510  1.0000
  C   C153      1.0  0.22727  0.58016  0.35324  1.0000
  C   C154      1.0  0.25052  0.56139  0.35012  1.0000
  C   C155      1.0  0.28323  0.56700  0.34765  1.0000
  C   C156      1.0  0.29189  0.59235  0.34050  1.0000
  H   H103      1.0  0.24328  0.54340  0.35015  1.0000
  H   H104      1.0  0.31521  0.59704  0.33734  1.0000
  H   H105      1.0  0.22068  0.61870  0.34589  1.0000
  C   C157      1.0  0.74040  0.39749  0.33360  1.0000
  C   C158      1.0  0.77244  0.40394  0.34240  1.0000
  C   C159      1.0  0.78249  0.42874  0.35054  1.0000
  C   C160      1.0  0.75930  0.44756  0.34753  1.0000
  C   C161      1.0  0.72656  0.44204  0.34531  1.0000
  C   C162      1.0  0.71782  0.41670  0.33819  1.0000
  H   H106      1.0  0.76662  0.46553  0.34755  1.0000
  H   H107      1.0  0.69448  0.41205  0.33529  1.0000
  H   H108      1.0  0.78893  0.39019  0.34308  1.0000
  C   C163      1.0  0.39961  0.30880  0.33834  1.0000
  C   C164      1.0  0.36894  0.29892  0.33872  1.0000
  C   C165      1.0  0.34199  0.31417  0.34153  1.0000
  C   C166      1.0  0.34648  0.34012  0.34297  1.0000
  C   C167      1.0  0.37694  0.35090  0.34130  1.0000
  C   C168      1.0  0.40334  0.33477  0.34178  1.0000
  H   H109      1.0  0.32721  0.35129  0.34522  1.0000
  H   H110      1.0  0.42562  0.34198  0.34036  1.0000
  H   H111      1.0  0.36620  0.28005  0.33972  1.0000
  C   C169      1.0  0.61046  0.70048  0.33814  1.0000
  C   C170      1.0  0.64112  0.71039  0.33851  1.0000
  C   C171      1.0  0.66808  0.69515  0.34166  1.0000
  C   C172      1.0  0.66364  0.66920  0.34333  1.0000
  C   C173      1.0  0.63320  0.65840  0.34170  1.0000
  C   C174      1.0  0.60677  0.67450  0.34195  1.0000
  H   H112      1.0  0.68293  0.65805  0.34577  1.0000
  H   H113      1.0  0.58451  0.66725  0.34063  1.0000
  H   H114      1.0  0.64385  0.72925  0.33924  1.0000
  C   C175      1.0  0.11035  0.80879  0.34813  1.0000
  C   C176      1.0  0.14103  0.79892  0.34780  1.0000
  C   C177      1.0  0.16797  0.81418  0.34513  1.0000
  C   C178      1.0  0.16346  0.84013  0.34366  1.0000
  C   C179      1.0  0.13300  0.85090  0.34527  1.0000
  C   C180      1.0  0.10661  0.83477  0.34471  1.0000
  H   H115      1.0  0.18273  0.85130  0.34145  1.0000
  H   H116      1.0  0.08432  0.84197  0.34610  1.0000
  H   H117      1.0  0.14377  0.78006  0.34683  1.0000
  C   C181      1.0  0.89949  0.20048  0.34847  1.0000
  C   C182      1.0  0.86883  0.21038  0.34810  1.0000
  C   C183      1.0  0.84187  0.19515  0.34497  1.0000
  C   C184      1.0  0.84631  0.16920  0.34325  1.0000
  C   C185      1.0  0.87674  0.15839  0.34490  1.0000
  C   C186      1.0  0.90317  0.17449  0.34473  1.0000
  H   H118      1.0  0.82702  0.15805  0.34078  1.0000
  H   H119      1.0  0.92544  0.16725  0.34599  1.0000
  H   H120      1.0  0.86610  0.22925  0.34736  1.0000
  C   C187      1.0  0.21058  0.21335  0.34836  1.0000
  C   C188      1.0  0.23661  0.22966  0.34513  1.0000
  C   C189      1.0  0.23251  0.25563  0.34145  1.0000
  C   C190      1.0  0.20168  0.26535  0.34230  1.0000
  C   C191      1.0  0.17521  0.24954  0.34527  1.0000
  C   C192      1.0  0.17994  0.22360  0.34844  1.0000
  H   H121      1.0  0.19850  0.28414  0.34073  1.0000
  H   H122      1.0  0.16087  0.21203  0.35153  1.0000
  H   H123      1.0  0.25894  0.22250  0.34542  1.0000
  C   C193      1.0  0.79968  0.79573  0.34941  1.0000
  C   C194      1.0  0.77361  0.77948  0.34604  1.0000
  C   C195      1.0  0.77766  0.75351  0.34193  1.0000
  C   C196      1.0  0.80846  0.74374  0.34244  1.0000
  C   C197      1.0  0.83497  0.75951  0.34552  1.0000
  C   C198      1.0  0.83030  0.78545  0.34915  1.0000
  H   H124      1.0  0.81159  0.72494  0.34057  1.0000
  H   H125      1.0  0.84940  0.79699  0.35233  1.0000
  H   H126      1.0  0.75129  0.78666  0.34655  1.0000
  C   C199      1.0  0.29935  0.71334  0.33818  1.0000
  C   C200      1.0  0.27333  0.72965  0.34141  1.0000
  C   C201      1.0  0.27743  0.75562  0.34507  1.0000
  C   C202      1.0  0.30825  0.76534  0.34421  1.0000
  C   C203      1.0  0.33473  0.74953  0.34123  1.0000
  C   C204      1.0  0.32999  0.72359  0.33807  1.0000
  H   H127      1.0  0.31144  0.78414  0.34576  1.0000
  H   H128      1.0  0.34906  0.71202  0.33499  1.0000
  H   H129      1.0  0.25099  0.72250  0.34114  1.0000
  C   C205      1.0  0.71026  0.29573  0.33715  1.0000
  C   C206      1.0  0.73633  0.27948  0.34051  1.0000
  C   C207      1.0  0.73228  0.25351  0.34462  1.0000
  C   C208      1.0  0.70149  0.24374  0.34411  1.0000
  C   C209      1.0  0.67498  0.25950  0.34103  1.0000
  C   C210      1.0  0.67965  0.28545  0.33739  1.0000
  H   H130      1.0  0.69835  0.22493  0.34598  1.0000
  H   H131      1.0  0.66055  0.29699  0.33422  1.0000
  H   H132      1.0  0.75865  0.28666  0.34000  1.0000
  C   C211      1.0  0.99512  0.27232  0.33927  1.0000
  C   C212      1.0  0.98638  0.29754  0.34453  1.0000
  C   C213      1.0  0.00923  0.31665  0.34784  1.0000
  C   C214      1.0  0.04149  0.30990  0.34864  1.0000
  C   C215      1.0  0.05073  0.28471  0.35071  1.0000
  C   C216      1.0  0.02732  0.26629  0.34328  1.0000
  H   H133      1.0  0.05833  0.32340  0.35316  1.0000
  H   H134      1.0  0.03382  0.24807  0.34259  1.0000
  H   H135      1.0  0.96298  0.30205  0.34226  1.0000
  C   C217      1.0  0.01493  0.73686  0.33777  1.0000
  C   C218      1.0  0.02377  0.71166  0.34280  1.0000
  C   C219      1.0  0.00100  0.69250  0.34620  1.0000
  C   C220      1.0  0.96872  0.69917  0.34731  1.0000
  C   C221      1.0  0.95939  0.72433  0.34945  1.0000
  C   C222      1.0  0.98271  0.74281  0.34197  1.0000
  H   H136      1.0  0.95193  0.68563  0.35189  1.0000
  H   H137      1.0  0.97615  0.76102  0.34152  1.0000
  H   H138      1.0  0.04720  0.70721  0.34053  1.0000
  C   C223      1.0  0.51483  0.77232  0.34727  1.0000
  C   C224      1.0  0.52356  0.79754  0.34203  1.0000
  C   C225      1.0  0.50070  0.81664  0.33865  1.0000
  C   C226      1.0  0.46845  0.80988  0.33779  1.0000
  C   C227      1.0  0.45921  0.78469  0.33581  1.0000
  C   C228      1.0  0.48263  0.76628  0.34327  1.0000
  H   H139      1.0  0.45159  0.82338  0.33333  1.0000
  H   H140      1.0  0.47613  0.74806  0.34399  1.0000
  H   H141      1.0  0.54696  0.80204  0.34425  1.0000
  C   C229      1.0  0.49501  0.23685  0.34868  1.0000
  C   C230      1.0  0.48617  0.21166  0.34368  1.0000
  C   C231      1.0  0.50894  0.19250  0.34030  1.0000
  C   C232      1.0  0.54122  0.19917  0.33921  1.0000
  C   C233      1.0  0.55055  0.22433  0.33707  1.0000
  C   C234      1.0  0.52723  0.24281  0.34450  1.0000
  H   H142      1.0  0.55802  0.18563  0.33464  1.0000
  H   H143      1.0  0.53380  0.26102  0.34499  1.0000
  H   H144      1.0  0.46275  0.20721  0.34594  1.0000
  C   C235      1.0  0.52549  0.98384  0.35347  1.0000
  C   C236      1.0  0.48519  0.02572  0.34848  1.0000
  N   N37       1.0  0.51118  0.02461  0.40182  1.0000
  C   C237      1.0  0.53140  0.00506  0.40802  1.0000
  C   C238      1.0  0.55647  0.00715  0.47724  1.0000
  O   O19       1.0  0.55686  0.98643  0.53753  1.0000
  H   H145      1.0  0.55371  0.02411  0.51676  1.0000
  H   H146      1.0  0.57927  0.00843  0.44429  1.0000
  H   H147      1.0  0.53717  0.98655  0.57244  1.0000
  N   N38       1.0  0.01088  0.48484  0.38529  1.0000
  C   C239      1.0  0.03107  0.50433  0.38955  1.0000
  H   H148      1.0  0.04989  0.50346  0.43222  1.0000
  N   N39       1.0  0.32960  0.06074  0.38991  1.0000
  C   C240      1.0  0.36120  0.05661  0.39471  1.0000
  H   H149      1.0  0.37009  0.04647  0.44693  1.0000
  N   N40       1.0  0.68043  0.94804  0.39262  1.0000
  C   C241      1.0  0.64880  0.95206  0.39749  1.0000
  H   H150      1.0  0.63990  0.96219  0.44969  1.0000
  C   C242      1.0  0.19443  0.57490  0.36103  1.0000
  C   C243      1.0  0.12868  0.56844  0.35416  1.0000
  N   N41       1.0  0.14286  0.58218  0.41915  1.0000
  C   C244      1.0  0.17445  0.58568  0.42725  1.0000
  C   C245      1.0  0.18546  0.59989  0.50688  1.0000
  O   O20       1.0  0.20878  0.58665  0.55729  1.0000
  H   H151      1.0  0.16578  0.60445  0.55147  1.0000
  H   H152      1.0  0.19565  0.61737  0.48515  1.0000
  H   H153      1.0  0.19883  0.57183  0.58333  1.0000
  C   C246      1.0  0.81538  0.43388  0.35829  1.0000
  C   C247      1.0  0.88117  0.44007  0.35112  1.0000
  N   N42       1.0  0.86695  0.42635  0.41611  1.0000
  C   C248      1.0  0.83534  0.42298  0.42430  1.0000
  C   C249      1.0  0.82428  0.40882  0.50399  1.0000
  O   O21       1.0  0.80111  0.42218  0.55454  1.0000
  H   H154      1.0  0.84396  0.40416  0.54845  1.0000
  H   H155      1.0  0.81393  0.39139  0.48231  1.0000
  H   H156      1.0  0.81120  0.43694  0.58052  1.0000
  C   C250      1.0  0.47826  0.11764  0.34395  1.0000
  C   C251      1.0  0.49930  0.16725  0.33759  1.0000
  N   N43       1.0  0.51171  0.15041  0.39566  1.0000
  C   C252      1.0  0.50270  0.12620  0.40191  1.0000
  C   C253      1.0  0.51726  0.11152  0.47539  1.0000
  O   O22       1.0  0.49429  0.10091  0.53460  1.0000
  H   H157      1.0  0.53343  0.12290  0.51514  1.0000
  H   H158      1.0  0.53123  0.09666  0.44629  1.0000
  H   H159      1.0  0.48341  0.11446  0.56614  1.0000
  C   C254      1.0  0.53115  0.89158  0.34282  1.0000
  C   C255      1.0  0.51022  0.84192  0.33598  1.0000
  N   N44       1.0  0.49774  0.85872  0.39407  1.0000
  C   C256      1.0  0.50669  0.88295  0.40058  1.0000
  C   C257      1.0  0.49202  0.89758  0.47395  1.0000
  O   O23       1.0  0.51488  0.90822  0.53345  1.0000
  H   H160      1.0  0.47582  0.88618  0.51346  1.0000
  H   H161      1.0  0.47806  0.91243  0.44469  1.0000
  H   H162      1.0  0.52575  0.89467  0.56505  1.0000
  N   N45       1.0  0.04415  0.63474  0.39992  1.0000
  C   C258      1.0  0.03488  0.65870  0.40581  1.0000
  H   H163      1.0  0.04574  0.67012  0.45098  1.0000
  N   N46       1.0  0.96626  0.37454  0.40111  1.0000
  C   C259      1.0  0.97548  0.35057  0.40728  1.0000
  H   H164      1.0  0.96453  0.33918  0.45238  1.0000
  C   C260      1.0  0.53616  0.51360  0.35576  1.0000
  C   C261      1.0  0.47346  0.49633  0.34697  1.0000
  N   N47       1.0  0.48259  0.51419  0.40580  1.0000
  C   C262      1.0  0.51240  0.52327  0.41379  1.0000
  C   C263      1.0  0.51776  0.54107  0.48846  1.0000
  O   O24       1.0  0.54321  0.53372  0.54589  1.0000
  H   H165      1.0  0.49653  0.54324  0.52945  1.0000
  H   H166      1.0  0.52307  0.55925  0.46084  1.0000
  H   H167      1.0  0.53719  0.51827  0.57650  1.0000
  N   N48       1.0  0.98285  0.99526  0.38824  1.0000
  C   C264      1.0  0.01261  0.98616  0.39429  1.0000
  H   H168      1.0  0.01737  0.97259  0.44021  1.0000
  N   N49       1.0  0.40405  0.38649  0.39678  1.0000
  C   C265      1.0  0.41193  0.41080  0.40268  1.0000
  H   H169      1.0  0.42899  0.41610  0.44712  1.0000
  N   N50       1.0  0.60641  0.62281  0.39827  1.0000
  C   C266      1.0  0.59869  0.59849  0.40473  1.0000
  H   H170      1.0  0.58176  0.59319  0.44961  1.0000
  C   C267      1.0  0.12844  0.87717  0.34555  1.0000
  C   C268      1.0  0.11406  0.92818  0.33789  1.0000
  N   N51       1.0  0.13614  0.91890  0.39483  1.0000
  C   C269      1.0  0.14419  0.89455  0.40206  1.0000
  C   C270      1.0  0.16675  0.88822  0.47483  1.0000
  O   O25       1.0  0.15489  0.86943  0.53394  1.0000
  H   H171      1.0  0.17268  0.90458  0.51486  1.0000
  H   H172      1.0  0.18865  0.88171  0.44518  1.0000
  H   H173      1.0  0.13652  0.87617  0.56607  1.0000
  C   C271      1.0  0.88116  0.13212  0.34470  1.0000
  C   C272      1.0  0.89528  0.08109  0.33606  1.0000
  N   N52       1.0  0.87335  0.09034  0.39349  1.0000
  C   C273      1.0  0.86546  0.11472  0.40120  1.0000
  C   C274      1.0  0.84301  0.12105  0.47426  1.0000
  O   O26       1.0  0.85507  0.13971  0.53357  1.0000
  H   H174      1.0  0.83700  0.10466  0.51404  1.0000
  H   H175      1.0  0.82112  0.12769  0.44489  1.0000
  H   H176      1.0  0.87342  0.13284  0.56543  1.0000
  C   C275      1.0  0.30731  0.54824  0.34957  1.0000
  C   C276      1.0  0.35904  0.51498  0.34577  1.0000
  N   N53       1.0  0.33377  0.51164  0.40064  1.0000
  C   C277      1.0  0.30824  0.52692  0.40622  1.0000
  C   C278      1.0  0.28498  0.52079  0.47741  1.0000
  O   O27       1.0  0.27870  0.54130  0.53595  1.0000
  H   H177      1.0  0.29303  0.50516  0.51823  1.0000
  H   H178      1.0  0.26303  0.51500  0.44612  1.0000
  H   H179      1.0  0.29809  0.54515  0.56942  1.0000
  C   C279      1.0  0.70251  0.46083  0.34776  1.0000
  C   C280      1.0  0.65071  0.49408  0.34585  1.0000
  N   N54       1.0  0.67623  0.49740  0.39980  1.0000
  C   C281      1.0  0.70178  0.48213  0.40457  1.0000
  C   C282      1.0  0.72534  0.48831  0.47487  1.0000
  O   O28       1.0  0.73195  0.46783  0.53324  1.0000
  H   H180      1.0  0.71741  0.50394  0.51596  1.0000
  H   H181      1.0  0.74711  0.49416  0.44275  1.0000
  H   H182      1.0  0.71272  0.46394  0.56741  1.0000
  N   N55       1.0  0.17695  0.05168  0.39077  1.0000
  C   C283      1.0  0.15155  0.03644  0.39487  1.0000
  H   H183      1.0  0.13367  0.04051  0.43839  1.0000
  N   N56       1.0  0.83339  0.95738  0.39152  1.0000
  C   C284      1.0  0.85884  0.97262  0.39471  1.0000
  H   H184      1.0  0.87691  0.96856  0.43761  1.0000
  C   C285      1.0  0.23190  0.13694  0.35788  1.0000
  C   C286      1.0  0.21576  0.18740  0.35249  1.0000
  N   N57       1.0  0.23674  0.17827  0.41292  1.0000
  C   C287      1.0  0.24527  0.15407  0.41992  1.0000
  C   C288      1.0  0.26652  0.14754  0.49571  1.0000
  O   O29       1.0  0.25416  0.12781  0.54966  1.0000
  H   H185      1.0  0.27081  0.16360  0.53894  1.0000
  H   H186      1.0  0.28931  0.14184  0.46955  1.0000
  H   H187      1.0  0.23488  0.13373  0.57942  1.0000
  C   C289      1.0  0.77843  0.87211  0.36021  1.0000
  C   C290      1.0  0.79456  0.82168  0.35403  1.0000
  N   N58       1.0  0.77366  0.83074  0.41484  1.0000
  C   C291      1.0  0.76515  0.85493  0.42225  1.0000
  C   C292      1.0  0.74395  0.86139  0.49822  1.0000
  O   O30       1.0  0.75628  0.88112  0.55220  1.0000
  H   H188      1.0  0.73975  0.84530  0.54139  1.0000
  H   H189      1.0  0.72112  0.86705  0.47226  1.0000
  H   H190      1.0  0.77561  0.87522  0.58180  1.0000
  N   N59       1.0  0.29964  0.64598  0.38801  1.0000
  C   C293      1.0  0.30863  0.67012  0.39207  1.0000
  H   H191      1.0  0.32436  0.67558  0.44017  1.0000
  N   N60       1.0  0.71000  0.36312  0.38607  1.0000
  C   C294      1.0  0.70098  0.33899  0.39046  1.0000
  H   H192      1.0  0.68539  0.33357  0.43897  1.0000
  C   C295      1.0  0.31196  0.30246  0.33970  1.0000
  C   C296      1.0  0.25878  0.27169  0.33762  1.0000
  N   N61       1.0  0.26169  0.29069  0.39712  1.0000
  C   C297      1.0  0.28683  0.30634  0.40140  1.0000
  C   C298      1.0  0.28713  0.32462  0.47588  1.0000
  O   O31       1.0  0.31415  0.32198  0.53289  1.0000
  H   H193      1.0  0.26587  0.32304  0.51705  1.0000
  H   H194      1.0  0.28718  0.34321  0.44756  1.0000
  H   H195      1.0  0.31273  0.30589  0.56373  1.0000
  C   C299      1.0  0.69813  0.70681  0.33995  1.0000
  C   C300      1.0  0.75136  0.73751  0.33807  1.0000
  N   N62       1.0  0.74830  0.71862  0.39795  1.0000
  C   C301      1.0  0.72310  0.70304  0.40225  1.0000
  C   C302      1.0  0.72262  0.68486  0.47706  1.0000
  O   O32       1.0  0.69550  0.68762  0.53358  1.0000
  H   H196      1.0  0.74381  0.68649  0.51856  1.0000
  H   H197      1.0  0.72261  0.66623  0.44911  1.0000
  H   H198      1.0  0.69688  0.70375  0.56413  1.0000
  N   N63       1.0  0.20125  0.78342  0.40634  1.0000
  C   C303      1.0  0.22642  0.76816  0.41060  1.0000
  H   H199      1.0  0.22677  0.75423  0.45716  1.0000
  N   N64       1.0  0.80847  0.22582  0.40622  1.0000
  C   C304      1.0  0.78324  0.24103  0.41045  1.0000
  H   H200      1.0  0.78279  0.25491  0.45718  1.0000
  C   C305      1.0  0.47216  0.25598  0.34953  1.0000
  C   C306      1.0  0.42543  0.29226  0.33614  1.0000
  N   N65       1.0  0.44716  0.29271  0.40314  1.0000
  C   C307      1.0  0.47072  0.27580  0.41258  1.0000
  C   C308      1.0  0.49123  0.27817  0.49303  1.0000
  O   O33       1.0  0.49132  0.25615  0.54686  1.0000
  H   H201      1.0  0.48391  0.29382  0.53491  1.0000
  H   H202      1.0  0.51526  0.28191  0.47161  1.0000
  H   H203      1.0  0.47011  0.25389  0.57218  1.0000
  C   C309      1.0  0.53776  0.75324  0.34848  1.0000
  C   C310      1.0  0.58461  0.71700  0.33580  1.0000
  N   N66       1.0  0.56284  0.71659  0.40269  1.0000
  C   C311      1.0  0.53924  0.73349  0.41184  1.0000
  C   C312      1.0  0.51868  0.73115  0.49219  1.0000
  O   O34       1.0  0.51844  0.75323  0.54568  1.0000
  H   H204      1.0  0.52605  0.71558  0.53437  1.0000
  H   H205      1.0  0.49469  0.72730  0.47070  1.0000
  H   H206      1.0  0.53962  0.75559  0.57109  1.0000
  N   N67       1.0  0.05985  0.75538  0.40315  1.0000
  C   C313      1.0  0.08291  0.77248  0.41223  1.0000
  H   H207      1.0  0.09894  0.77057  0.46308  1.0000
  N   N68       1.0  0.95010  0.25380  0.40423  1.0000
  C   C314      1.0  0.92699  0.23672  0.41302  1.0000
  H   H208      1.0  0.91094  0.23861  0.46383  1.0000
  C   C315      1.0  0.08269  0.27731  0.35739  1.0000
  C   C316      1.0  0.14446  0.25958  0.34784  1.0000
  N   N69       1.0  0.12441  0.25216  0.41359  1.0000
  C   C317      1.0  0.09426  0.26018  0.42234  1.0000
  C   C318      1.0  0.07653  0.25137  0.50237  1.0000
  O   O35       1.0  0.06385  0.27145  0.55393  1.0000
  H   H209      1.0  0.09151  0.24007  0.54602  1.0000
  H   H210      1.0  0.05713  0.23961  0.48098  1.0000
  H   H211      1.0  0.08149  0.28091  0.57965  1.0000
  C   C319      1.0  0.92743  0.73166  0.35663  1.0000
  C   C320      1.0  0.86568  0.74943  0.34780  1.0000
  N   N70       1.0  0.88576  0.75672  0.41365  1.0000
  C   C321      1.0  0.91591  0.74866  0.42208  1.0000
  C   C322      1.0  0.93373  0.75735  0.50212  1.0000
  O   O36       1.0  0.94645  0.73720  0.55319  1.0000
  H   H212      1.0  0.91880  0.76859  0.54611  1.0000
  H   H213      1.0  0.95311  0.76914  0.48078  1.0000
  H   H214      1.0  0.92883  0.72770  0.57888  1.0000
  N   N71       1.0  0.40696  0.78516  0.39398  1.0000
  C   C323      1.0  0.37659  0.77749  0.40005  1.0000
  H   H215      1.0  0.36280  0.78388  0.45139  1.0000
  N   N72       1.0  0.60282  0.22394  0.39493  1.0000
  C   C324      1.0  0.63319  0.23162  0.40065  1.0000
  H   H216      1.0  0.64698  0.22538  0.45225  1.0000
