data_image0
_chemical_formula_structural       C2HC3H3CH2C4H2CHC3H3C2HC3H3CH2C4H2CHC3H3C3HC2HC2HCHC3HCH3C3H2C3HCH3C4HC4H2C7H2C3H3C3HCH3CHC3HCH3C3HC2HC2HCHC3HCH3C3H2C3HCH3C4HC4H2C7H2C3H3C3HCH3CHC3HCH3CHCH3CH2C2H3CHCH3CH2C2H3C2HC3HCH3C2HCHC4H2C2H2C4H3C2HC3HCH3C2HCHC4H2C2H2C4H3C2HC2HC2HC2HC2HC2HC3HCH3C3HCH3C3HCH3C3HCH3C3HCH3C3HCH3C4H2C4H2C4H2C4H2C4H2C4H2C3HCH3C3HCH3C3HCH3C3HCH3C3HCH3C3HCH3C2HC2HC2HC2HC2HC2HC3HCH3C3HCH3C3HCH3C3HCH3C3HCH3C3HCH3C4H2C4H2C4H2C4H2C4H2C4H2C3HCH3C3HCH3C3HCH3C3HCH3C3HCH3C3HCH3
_chemical_formula_sum              "C336 H264"
_cell_length_a       46.7479
_cell_length_b       46.7479
_cell_length_c       14.7752
_cell_angle_alpha    90
_cell_angle_beta     90
_cell_angle_gamma    120

_space_group_name_H-M_alt    "P 1"
_space_group_IT_number       1

loop_
  _space_group_symop_operation_xyz
  'x, y, z'

loop_
  _atom_site_type_symbol
  _atom_site_label
  _atom_site_symmetry_multiplicity
  _atom_site_fract_x
  _atom_site_fract_y
  _atom_site_fract_z
  _atom_site_occupancy
  C   C1        1.0  0.04852  0.30203  0.33580  1.0000
  C   C2        1.0  0.08319  0.31984  0.34841  1.0000
  H   H1        1.0  0.03747  0.31603  0.33516  1.0000
  C   C3        1.0  0.10290  0.25181  0.35120  1.0000
  C   C4        1.0  0.11519  0.24365  0.27285  1.0000
  C   C5        1.0  0.10025  0.23933  0.18129  1.0000
  H   H2        1.0  0.07684  0.23908  0.18185  1.0000
  H   H3        1.0  0.09560  0.21588  0.15249  1.0000
  H   H4        1.0  0.11723  0.25935  0.13694  1.0000
  C   C6        1.0  0.11315  0.37365  0.27867  1.0000
  H   H5        1.0  0.10058  0.36326  0.21978  1.0000
  H   H6        1.0  0.13553  0.42335  0.15266  1.0000
  C   C7        1.0  0.02937  0.26661  0.33214  1.0000
  C   C8        1.0  0.09995  0.30191  0.35302  1.0000
  C   C9        1.0  0.08344  0.26733  0.34401  1.0000
  C   C10       1.0  0.04865  0.25044  0.33356  1.0000
  H   H7        1.0  0.12520  0.31459  0.35999  1.0000
  H   H8        1.0  0.03769  0.22543  0.32993  1.0000
  C   C11       1.0  0.12053  0.25716  0.43326  1.0000
  H   H9        1.0  0.11270  0.26423  0.48945  1.0000
  C   C12       1.0  0.10237  0.35467  0.35915  1.0000
  C   C13       1.0  0.12178  0.36822  0.43858  1.0000
  C   C14       1.0  0.11307  0.35075  0.52736  1.0000
  H   H10       1.0  0.08871  0.32859  0.52715  1.0000
  H   H11       1.0  0.11292  0.36710  0.57989  1.0000
  H   H12       1.0  0.13132  0.34361  0.54517  1.0000
  C   C15       1.0  0.04851  0.80203  0.33580  1.0000
  C   C16       1.0  0.08319  0.81984  0.34841  1.0000
  H   H13       1.0  0.03747  0.81603  0.33516  1.0000
  C   C17       1.0  0.10290  0.75180  0.35120  1.0000
  C   C18       1.0  0.11519  0.74365  0.27285  1.0000
  C   C19       1.0  0.10025  0.73933  0.18129  1.0000
  H   H14       1.0  0.07684  0.73909  0.18185  1.0000
  H   H15       1.0  0.09560  0.71588  0.15249  1.0000
  H   H16       1.0  0.11723  0.75935  0.13694  1.0000
  C   C20       1.0  0.11315  0.87365  0.27867  1.0000
  H   H17       1.0  0.10058  0.86326  0.21978  1.0000
  H   H18       1.0  0.13553  0.92335  0.15266  1.0000
  C   C21       1.0  0.02937  0.76661  0.33214  1.0000
  C   C22       1.0  0.09995  0.80191  0.35302  1.0000
  C   C23       1.0  0.08344  0.76733  0.34401  1.0000
  C   C24       1.0  0.04864  0.75044  0.33356  1.0000
  H   H19       1.0  0.12520  0.81459  0.35999  1.0000
  H   H20       1.0  0.03769  0.72543  0.32993  1.0000
  C   C25       1.0  0.12053  0.75716  0.43326  1.0000
  H   H21       1.0  0.11270  0.76423  0.48945  1.0000
  C   C26       1.0  0.10237  0.85467  0.35915  1.0000
  C   C27       1.0  0.12178  0.86821  0.43858  1.0000
  C   C28       1.0  0.11307  0.85075  0.52736  1.0000
  H   H22       1.0  0.08871  0.82859  0.52715  1.0000
  H   H23       1.0  0.11292  0.86710  0.57989  1.0000
  H   H24       1.0  0.13132  0.84361  0.54517  1.0000
  C   C29       1.0  0.30582  0.26487  0.33562  1.0000
  C   C30       1.0  0.21698  0.25028  0.33559  1.0000
  C   C31       1.0  0.19919  0.26717  0.34820  1.0000
  H   H25       1.0  0.20296  0.22523  0.33486  1.0000
  C   C32       1.0  0.27097  0.07940  0.34853  1.0000
  C   C33       1.0  0.25410  0.04473  0.33586  1.0000
  H   H26       1.0  0.22905  0.03369  0.33484  1.0000
  C   C34       1.0  0.26873  0.47052  0.33582  1.0000
  C   C35       1.0  0.25186  0.43586  0.34861  1.0000
  H   H27       1.0  0.29377  0.48156  0.33470  1.0000
  C   C36       1.0  0.14537  0.24327  0.27833  1.0000
  H   H28       1.0  0.15576  0.24106  0.21948  1.0000
  C   C37       1.0  0.26728  0.35486  0.35115  1.0000
  C   C38       1.0  0.27541  0.37540  0.27299  1.0000
  C   C39       1.0  0.27579  0.40594  0.27862  1.0000
  H   H29       1.0  0.27798  0.41855  0.21979  1.0000
  C   C40       1.0  0.27973  0.36483  0.18134  1.0000
  H   H30       1.0  0.28000  0.34168  0.18178  1.0000
  H   H31       1.0  0.30317  0.38366  0.15254  1.0000
  H   H32       1.0  0.25969  0.36179  0.13707  1.0000
  C   C41       1.0  0.16414  0.41617  0.35155  1.0000
  C   C42       1.0  0.14370  0.40383  0.27320  1.0000
  C   C43       1.0  0.15433  0.41873  0.18159  1.0000
  H   H33       1.0  0.17749  0.44215  0.18212  1.0000
  H   H34       1.0  0.15740  0.40174  0.13736  1.0000
  C   C44       1.0  0.25551  0.16028  0.35128  1.0000
  C   C45       1.0  0.24745  0.13984  0.27296  1.0000
  C   C46       1.0  0.24709  0.10931  0.27857  1.0000
  H   H35       1.0  0.24493  0.09672  0.21974  1.0000
  C   C47       1.0  0.24318  0.15045  0.18132  1.0000
  H   H36       1.0  0.24289  0.17360  0.18181  1.0000
  H   H37       1.0  0.21976  0.13163  0.15239  1.0000
  H   H38       1.0  0.26325  0.15353  0.13713  1.0000
  C   C48       1.0  0.27039  0.24862  0.33210  1.0000
  C   C49       1.0  0.25420  0.21318  0.33362  1.0000
  C   C50       1.0  0.27107  0.19525  0.34399  1.0000
  C   C51       1.0  0.30566  0.21330  0.35297  1.0000
  H   H39       1.0  0.22919  0.19913  0.33013  1.0000
  C   C52       1.0  0.25241  0.26653  0.33207  1.0000
  C   C53       1.0  0.21714  0.30186  0.35274  1.0000
  C   C54       1.0  0.25173  0.31990  0.34382  1.0000
  C   C55       1.0  0.26860  0.30197  0.33357  1.0000
  H   H40       1.0  0.20448  0.31445  0.35970  1.0000
  H   H41       1.0  0.29361  0.31602  0.33002  1.0000
  C   C56       1.0  0.27037  0.02558  0.33220  1.0000
  C   C57       1.0  0.30581  0.04485  0.33372  1.0000
  C   C58       1.0  0.30565  0.09616  0.35321  1.0000
  C   C59       1.0  0.25246  0.48968  0.33222  1.0000
  C   C60       1.0  0.21717  0.41911  0.35330  1.0000
  C   C61       1.0  0.19911  0.43562  0.34436  1.0000
  C   C62       1.0  0.21701  0.47041  0.33383  1.0000
  H   H42       1.0  0.20459  0.39386  0.36039  1.0000
  H   H43       1.0  0.20296  0.48136  0.33019  1.0000
  C   C63       1.0  0.16435  0.25155  0.35880  1.0000
  C   C64       1.0  0.15086  0.25748  0.43827  1.0000
  C   C65       1.0  0.16834  0.26626  0.52704  1.0000
  H   H44       1.0  0.19048  0.26403  0.52687  1.0000
  H   H45       1.0  0.15199  0.24980  0.57962  1.0000
  H   H46       1.0  0.17550  0.29166  0.54476  1.0000
  C   C66       1.0  0.26749  0.41666  0.35906  1.0000
  C   C67       1.0  0.26162  0.39717  0.43836  1.0000
  C   C68       1.0  0.26196  0.36717  0.43322  1.0000
  H   H47       1.0  0.25491  0.35225  0.48938  1.0000
  C   C69       1.0  0.25285  0.40580  0.52725  1.0000
  H   H48       1.0  0.25506  0.43016  0.52723  1.0000
  H   H49       1.0  0.26935  0.40592  0.57973  1.0000
  H   H50       1.0  0.22747  0.38754  0.54501  1.0000
  C   C70       1.0  0.15179  0.39854  0.43360  1.0000
  H   H51       1.0  0.16668  0.40639  0.48982  1.0000
  C   C71       1.0  0.25531  0.09858  0.35913  1.0000
  C   C72       1.0  0.26117  0.11803  0.43850  1.0000
  C   C73       1.0  0.26081  0.14801  0.43343  1.0000
  H   H52       1.0  0.26784  0.16293  0.48960  1.0000
  C   C74       1.0  0.26993  0.10936  0.52735  1.0000
  H   H53       1.0  0.26775  0.08501  0.52723  1.0000
  H   H54       1.0  0.25342  0.10921  0.57985  1.0000
  H   H55       1.0  0.29530  0.12762  0.54515  1.0000
  C   C75       1.0  0.30582  0.76487  0.33562  1.0000
  C   C76       1.0  0.21698  0.75028  0.33559  1.0000
  C   C77       1.0  0.19919  0.76717  0.34820  1.0000
  H   H56       1.0  0.20296  0.72523  0.33486  1.0000
  C   C78       1.0  0.27097  0.57940  0.34853  1.0000
  C   C79       1.0  0.25410  0.54473  0.33586  1.0000
  H   H57       1.0  0.22905  0.53369  0.33484  1.0000
  C   C80       1.0  0.26873  0.97052  0.33582  1.0000
  C   C81       1.0  0.25186  0.93586  0.34861  1.0000
  H   H58       1.0  0.29377  0.98156  0.33470  1.0000
  C   C82       1.0  0.14536  0.74327  0.27833  1.0000
  H   H59       1.0  0.15576  0.74106  0.21948  1.0000
  C   C83       1.0  0.26728  0.85486  0.35115  1.0000
  C   C84       1.0  0.27541  0.87540  0.27299  1.0000
  C   C85       1.0  0.27579  0.90595  0.27862  1.0000
  H   H60       1.0  0.27798  0.91855  0.21979  1.0000
  C   C86       1.0  0.27973  0.86483  0.18134  1.0000
  H   H61       1.0  0.28000  0.84168  0.18178  1.0000
  H   H62       1.0  0.30317  0.88366  0.15254  1.0000
  H   H63       1.0  0.25969  0.86179  0.13707  1.0000
  C   C87       1.0  0.16414  0.91617  0.35155  1.0000
  C   C88       1.0  0.14370  0.90383  0.27320  1.0000
  C   C89       1.0  0.15433  0.91873  0.18159  1.0000
  H   H64       1.0  0.17750  0.94215  0.18212  1.0000
  H   H65       1.0  0.15740  0.90174  0.13736  1.0000
  C   C90       1.0  0.25551  0.66028  0.35128  1.0000
  C   C91       1.0  0.24745  0.63984  0.27296  1.0000
  C   C92       1.0  0.24709  0.60931  0.27857  1.0000
  H   H66       1.0  0.24493  0.59672  0.21974  1.0000
  C   C93       1.0  0.24318  0.65045  0.18132  1.0000
  H   H67       1.0  0.24289  0.67360  0.18181  1.0000
  H   H68       1.0  0.21976  0.63163  0.15239  1.0000
  H   H69       1.0  0.26325  0.65353  0.13713  1.0000
  C   C94       1.0  0.27039  0.74862  0.33210  1.0000
  C   C95       1.0  0.25420  0.71318  0.33362  1.0000
  C   C96       1.0  0.27107  0.69525  0.34399  1.0000
  C   C97       1.0  0.30566  0.71330  0.35297  1.0000
  H   H70       1.0  0.22919  0.69913  0.33013  1.0000
  C   C98       1.0  0.25240  0.76653  0.33207  1.0000
  C   C99       1.0  0.21714  0.80186  0.35274  1.0000
  C   C100      1.0  0.25173  0.81990  0.34382  1.0000
  C   C101      1.0  0.26860  0.80198  0.33357  1.0000
  H   H71       1.0  0.20448  0.81445  0.35970  1.0000
  H   H72       1.0  0.29361  0.81602  0.33002  1.0000
  C   C102      1.0  0.27037  0.52558  0.33220  1.0000
  C   C103      1.0  0.30581  0.54485  0.33372  1.0000
  C   C104      1.0  0.30565  0.59616  0.35321  1.0000
  C   C105      1.0  0.25246  0.98968  0.33222  1.0000
  C   C106      1.0  0.21717  0.91911  0.35330  1.0000
  C   C107      1.0  0.19911  0.93562  0.34436  1.0000
  C   C108      1.0  0.21701  0.97041  0.33383  1.0000
  H   H73       1.0  0.20459  0.89386  0.36039  1.0000
  H   H74       1.0  0.20296  0.98136  0.33019  1.0000
  C   C109      1.0  0.16434  0.75155  0.35880  1.0000
  C   C110      1.0  0.15086  0.75748  0.43827  1.0000
  C   C111      1.0  0.16834  0.76627  0.52704  1.0000
  H   H75       1.0  0.19048  0.76403  0.52687  1.0000
  H   H76       1.0  0.15199  0.74980  0.57962  1.0000
  H   H77       1.0  0.17550  0.79166  0.54476  1.0000
  C   C112      1.0  0.26749  0.91666  0.35906  1.0000
  C   C113      1.0  0.26162  0.89717  0.43836  1.0000
  C   C114      1.0  0.26196  0.86718  0.43322  1.0000
  H   H78       1.0  0.25490  0.85225  0.48938  1.0000
  C   C115      1.0  0.25285  0.90580  0.52725  1.0000
  H   H79       1.0  0.25506  0.93016  0.52723  1.0000
  H   H80       1.0  0.26935  0.90592  0.57973  1.0000
  H   H81       1.0  0.22747  0.88754  0.54501  1.0000
  C   C116      1.0  0.15179  0.89854  0.43360  1.0000
  H   H82       1.0  0.16668  0.90639  0.48982  1.0000
  C   C117      1.0  0.25531  0.59858  0.35913  1.0000
  C   C118      1.0  0.26117  0.61803  0.43850  1.0000
  C   C119      1.0  0.26081  0.64801  0.43343  1.0000
  H   H83       1.0  0.26784  0.66293  0.48960  1.0000
  C   C120      1.0  0.26993  0.60936  0.52735  1.0000
  H   H84       1.0  0.26775  0.58501  0.52723  1.0000
  H   H85       1.0  0.25342  0.60921  0.57985  1.0000
  H   H86       1.0  0.29530  0.62762  0.54515  1.0000
  C   C121      1.0  0.32361  0.24798  0.34835  1.0000
  H   H87       1.0  0.31984  0.28992  0.33481  1.0000
  C   C122      1.0  0.35869  0.09908  0.35144  1.0000
  H   H88       1.0  0.34533  0.07311  0.18199  1.0000
  H   H89       1.0  0.36544  0.11353  0.13725  1.0000
  H   H90       1.0  0.31831  0.20071  0.35993  1.0000
  C   C123      1.0  0.32372  0.07964  0.34428  1.0000
  H   H91       1.0  0.31987  0.03390  0.33017  1.0000
  H   H92       1.0  0.31823  0.12140  0.36026  1.0000
  C   C124      1.0  0.35846  0.26361  0.35886  1.0000
  C   C125      1.0  0.35452  0.24889  0.52708  1.0000
  H   H93       1.0  0.33237  0.25109  0.52698  1.0000
  H   H94       1.0  0.34740  0.22350  0.54479  1.0000
  H   H95       1.0  0.35608  0.10883  0.48973  1.0000
  C   C126      1.0  0.32361  0.74799  0.34835  1.0000
  H   H96       1.0  0.31984  0.78992  0.33481  1.0000
  C   C127      1.0  0.35870  0.59908  0.35144  1.0000
  H   H97       1.0  0.34533  0.57311  0.18199  1.0000
  H   H98       1.0  0.36544  0.61352  0.13725  1.0000
  H   H99       1.0  0.31831  0.70070  0.35993  1.0000
  C   C128      1.0  0.32372  0.57964  0.34428  1.0000
  H   H100      1.0  0.31987  0.53390  0.33017  1.0000
  H   H101      1.0  0.31823  0.62141  0.36026  1.0000
  C   C129      1.0  0.35846  0.76361  0.35886  1.0000
  C   C130      1.0  0.35452  0.74889  0.52708  1.0000
  H   H102      1.0  0.33237  0.75109  0.52698  1.0000
  H   H103      1.0  0.34740  0.72350  0.54479  1.0000
  H   H104      1.0  0.35608  0.60882  0.48973  1.0000
  C   C131      1.0  0.43963  0.19539  0.34847  1.0000
  C   C132      1.0  0.47431  0.21319  0.33584  1.0000
  H   H105      1.0  0.48535  0.19919  0.33519  1.0000
  C   C133      1.0  0.41997  0.26347  0.35107  1.0000
  C   C134      1.0  0.40760  0.27155  0.27279  1.0000
  C   C135      1.0  0.37741  0.27190  0.27834  1.0000
  H   H106      1.0  0.36699  0.27409  0.21951  1.0000
  C   C136      1.0  0.42251  0.27586  0.18120  1.0000
  H   H107      1.0  0.44593  0.27611  0.18174  1.0000
  H   H108      1.0  0.42714  0.29930  0.15237  1.0000
  H   H109      1.0  0.40553  0.25582  0.13690  1.0000
  C   C137      1.0  0.37912  0.11142  0.27309  1.0000
  C   C138      1.0  0.40968  0.14159  0.27864  1.0000
  H   H110      1.0  0.42226  0.15199  0.21978  1.0000
  C   C139      1.0  0.36850  0.09653  0.18148  1.0000
  H   H111      1.0  0.38729  0.09190  0.15256  1.0000
  C   C140      1.0  0.49346  0.24861  0.33218  1.0000
  C   C141      1.0  0.47419  0.26478  0.33358  1.0000
  C   C142      1.0  0.43940  0.24791  0.34403  1.0000
  C   C143      1.0  0.42288  0.21332  0.35300  1.0000
  H   H112      1.0  0.48514  0.28979  0.32983  1.0000
  H   H113      1.0  0.39763  0.20065  0.35992  1.0000
  C   C144      1.0  0.37198  0.25769  0.43827  1.0000
  C   C145      1.0  0.40232  0.25806  0.43318  1.0000
  H   H114      1.0  0.41020  0.25102  0.48936  1.0000
  H   H115      1.0  0.37088  0.26537  0.57964  1.0000
  C   C146      1.0  0.42044  0.16056  0.35915  1.0000
  C   C147      1.0  0.40099  0.14701  0.43855  1.0000
  C   C148      1.0  0.37099  0.11668  0.43354  1.0000
  C   C149      1.0  0.40969  0.16447  0.52735  1.0000
  H   H116      1.0  0.43405  0.18662  0.52719  1.0000
  H   H117      1.0  0.40982  0.14811  0.57989  1.0000
  H   H118      1.0  0.39144  0.17161  0.54512  1.0000
  C   C150      1.0  0.43963  0.69539  0.34847  1.0000
  C   C151      1.0  0.47431  0.71319  0.33584  1.0000
  H   H119      1.0  0.48535  0.69918  0.33519  1.0000
  C   C152      1.0  0.41997  0.76347  0.35107  1.0000
  C   C153      1.0  0.40760  0.77155  0.27279  1.0000
  C   C154      1.0  0.37741  0.77190  0.27834  1.0000
  H   H120      1.0  0.36699  0.77408  0.21951  1.0000
  C   C155      1.0  0.42251  0.77586  0.18120  1.0000
  H   H121      1.0  0.44593  0.77612  0.18174  1.0000
  H   H122      1.0  0.42714  0.79930  0.15237  1.0000
  H   H123      1.0  0.40553  0.75582  0.13690  1.0000
  C   C156      1.0  0.37912  0.61142  0.27309  1.0000
  C   C157      1.0  0.40968  0.64159  0.27864  1.0000
  H   H124      1.0  0.42226  0.65199  0.21978  1.0000
  C   C158      1.0  0.36849  0.59653  0.18148  1.0000
  H   H125      1.0  0.38729  0.59189  0.15256  1.0000
  C   C159      1.0  0.49346  0.74861  0.33218  1.0000
  C   C160      1.0  0.47419  0.76478  0.33358  1.0000
  C   C161      1.0  0.43939  0.74791  0.34403  1.0000
  C   C162      1.0  0.42288  0.71332  0.35300  1.0000
  H   H126      1.0  0.48514  0.78979  0.32983  1.0000
  H   H127      1.0  0.39762  0.70065  0.35992  1.0000
  C   C163      1.0  0.37198  0.75769  0.43827  1.0000
  C   C164      1.0  0.40232  0.75806  0.43318  1.0000
  H   H128      1.0  0.41020  0.75102  0.48936  1.0000
  H   H129      1.0  0.37088  0.76537  0.57964  1.0000
  C   C165      1.0  0.42044  0.66056  0.35915  1.0000
  C   C166      1.0  0.40099  0.64701  0.43855  1.0000
  C   C167      1.0  0.37099  0.61668  0.43354  1.0000
  C   C168      1.0  0.40968  0.66447  0.52735  1.0000
  H   H130      1.0  0.43405  0.68662  0.52719  1.0000
  H   H131      1.0  0.40982  0.64811  0.57989  1.0000
  H   H132      1.0  0.39144  0.67161  0.54512  1.0000
  C   C169      1.0  0.93963  0.19539  0.34847  1.0000
  C   C170      1.0  0.97431  0.21319  0.33584  1.0000
  H   H133      1.0  0.98536  0.19919  0.33519  1.0000
  C   C171      1.0  0.54851  0.30203  0.33580  1.0000
  C   C172      1.0  0.58319  0.31984  0.34841  1.0000
  H   H134      1.0  0.53747  0.31603  0.33516  1.0000
  C   C173      1.0  0.82361  0.24798  0.34835  1.0000
  C   C174      1.0  0.80582  0.26487  0.33562  1.0000
  H   H135      1.0  0.81984  0.28992  0.33481  1.0000
  C   C175      1.0  0.71698  0.25028  0.33559  1.0000
  C   C176      1.0  0.69919  0.26717  0.34820  1.0000
  H   H136      1.0  0.70296  0.22523  0.33486  1.0000
  C   C177      1.0  0.77097  0.07940  0.34853  1.0000
  C   C178      1.0  0.75410  0.04473  0.33586  1.0000
  H   H137      1.0  0.72905  0.03369  0.33484  1.0000
  C   C179      1.0  0.76873  0.47052  0.33582  1.0000
  C   C180      1.0  0.75186  0.43586  0.34861  1.0000
  H   H138      1.0  0.79378  0.48156  0.33470  1.0000
  C   C181      1.0  0.60290  0.25181  0.35120  1.0000
  C   C182      1.0  0.61519  0.24365  0.27285  1.0000
  C   C183      1.0  0.64536  0.24327  0.27833  1.0000
  H   H139      1.0  0.65576  0.24106  0.21948  1.0000
  C   C184      1.0  0.60025  0.23933  0.18129  1.0000
  H   H140      1.0  0.57684  0.23908  0.18185  1.0000
  H   H141      1.0  0.59560  0.21588  0.15249  1.0000
  H   H142      1.0  0.61723  0.25935  0.13694  1.0000
  C   C185      1.0  0.76728  0.35486  0.35115  1.0000
  C   C186      1.0  0.77541  0.37540  0.27299  1.0000
  C   C187      1.0  0.77579  0.40594  0.27862  1.0000
  H   H143      1.0  0.77798  0.41855  0.21979  1.0000
  C   C188      1.0  0.77973  0.36483  0.18134  1.0000
  H   H144      1.0  0.78000  0.34168  0.18178  1.0000
  H   H145      1.0  0.80317  0.38366  0.15254  1.0000
  H   H146      1.0  0.75969  0.36179  0.13707  1.0000
  C   C189      1.0  0.66414  0.41617  0.35155  1.0000
  C   C190      1.0  0.64370  0.40383  0.27320  1.0000
  C   C191      1.0  0.61315  0.37365  0.27867  1.0000
  H   H147      1.0  0.60058  0.36326  0.21978  1.0000
  C   C192      1.0  0.65433  0.41873  0.18159  1.0000
  H   H148      1.0  0.67749  0.44215  0.18212  1.0000
  H   H149      1.0  0.63553  0.42335  0.15266  1.0000
  H   H150      1.0  0.65740  0.40174  0.13736  1.0000
  C   C193      1.0  0.91997  0.26347  0.35107  1.0000
  C   C194      1.0  0.90760  0.27155  0.27279  1.0000
  C   C195      1.0  0.87741  0.27190  0.27834  1.0000
  H   H151      1.0  0.86699  0.27409  0.21951  1.0000
  C   C196      1.0  0.92251  0.27586  0.18120  1.0000
  H   H152      1.0  0.94593  0.27611  0.18174  1.0000
  H   H153      1.0  0.92714  0.29930  0.15237  1.0000
  H   H154      1.0  0.90553  0.25582  0.13690  1.0000
  C   C197      1.0  0.75551  0.16028  0.35128  1.0000
  C   C198      1.0  0.74745  0.13984  0.27296  1.0000
  C   C199      1.0  0.74709  0.10931  0.27857  1.0000
  H   H155      1.0  0.74493  0.09672  0.21974  1.0000
  C   C200      1.0  0.74318  0.15045  0.18132  1.0000
  H   H156      1.0  0.74289  0.17360  0.18181  1.0000
  H   H157      1.0  0.71976  0.13163  0.15239  1.0000
  H   H158      1.0  0.76325  0.15353  0.13713  1.0000
  C   C201      1.0  0.85870  0.09908  0.35144  1.0000
  C   C202      1.0  0.87912  0.11142  0.27309  1.0000
  C   C203      1.0  0.90968  0.14159  0.27864  1.0000
  H   H159      1.0  0.92226  0.15199  0.21978  1.0000
  C   C204      1.0  0.86850  0.09653  0.18148  1.0000
  H   H160      1.0  0.84533  0.07311  0.18199  1.0000
  H   H161      1.0  0.88729  0.09190  0.15256  1.0000
  H   H162      1.0  0.86544  0.11353  0.13725  1.0000
  C   C205      1.0  0.99346  0.24861  0.33218  1.0000
  C   C206      1.0  0.97419  0.26478  0.33358  1.0000
  C   C207      1.0  0.93940  0.24791  0.34403  1.0000
  C   C208      1.0  0.92288  0.21332  0.35300  1.0000
  H   H163      1.0  0.98514  0.28979  0.32983  1.0000
  H   H164      1.0  0.89763  0.20065  0.35992  1.0000
  C   C209      1.0  0.52937  0.26661  0.33214  1.0000
  C   C210      1.0  0.59995  0.30191  0.35302  1.0000
  C   C211      1.0  0.58344  0.26733  0.34401  1.0000
  C   C212      1.0  0.54865  0.25044  0.33356  1.0000
  H   H165      1.0  0.62520  0.31459  0.35999  1.0000
  H   H166      1.0  0.53769  0.22543  0.32993  1.0000
  C   C213      1.0  0.77040  0.24862  0.33210  1.0000
  C   C214      1.0  0.75420  0.21318  0.33362  1.0000
  C   C215      1.0  0.77107  0.19525  0.34399  1.0000
  C   C216      1.0  0.80566  0.21330  0.35297  1.0000
  H   H167      1.0  0.72919  0.19913  0.33013  1.0000
  H   H168      1.0  0.81831  0.20071  0.35993  1.0000
  C   C217      1.0  0.75240  0.26653  0.33207  1.0000
  C   C218      1.0  0.71714  0.30186  0.35274  1.0000
  C   C219      1.0  0.75173  0.31990  0.34382  1.0000
  C   C220      1.0  0.76860  0.30197  0.33357  1.0000
  H   H169      1.0  0.70449  0.31445  0.35970  1.0000
  H   H170      1.0  0.79361  0.31602  0.33002  1.0000
  C   C221      1.0  0.77037  0.02558  0.33220  1.0000
  C   C222      1.0  0.80581  0.04485  0.33372  1.0000
  C   C223      1.0  0.82372  0.07964  0.34428  1.0000
  C   C224      1.0  0.80565  0.09616  0.35321  1.0000
  H   H171      1.0  0.81987  0.03390  0.33017  1.0000
  H   H172      1.0  0.81823  0.12140  0.36026  1.0000
  C   C225      1.0  0.75246  0.48968  0.33222  1.0000
  C   C226      1.0  0.71717  0.41911  0.35330  1.0000
  C   C227      1.0  0.69911  0.43562  0.34436  1.0000
  C   C228      1.0  0.71701  0.47041  0.33383  1.0000
  H   H173      1.0  0.70459  0.39386  0.36039  1.0000
  H   H174      1.0  0.70296  0.48136  0.33019  1.0000
  C   C229      1.0  0.66435  0.25155  0.35880  1.0000
  C   C230      1.0  0.65086  0.25748  0.43827  1.0000
  C   C231      1.0  0.62053  0.25716  0.43326  1.0000
  H   H175      1.0  0.61269  0.26423  0.48945  1.0000
  C   C232      1.0  0.66834  0.26626  0.52704  1.0000
  H   H176      1.0  0.69048  0.26403  0.52687  1.0000
  H   H177      1.0  0.65199  0.24980  0.57962  1.0000
  H   H178      1.0  0.67550  0.29166  0.54476  1.0000
  C   C233      1.0  0.76749  0.41666  0.35906  1.0000
  C   C234      1.0  0.76162  0.39717  0.43836  1.0000
  C   C235      1.0  0.76196  0.36717  0.43322  1.0000
  H   H179      1.0  0.75491  0.35225  0.48938  1.0000
  C   C236      1.0  0.75285  0.40580  0.52725  1.0000
  H   H180      1.0  0.75506  0.43016  0.52723  1.0000
  H   H181      1.0  0.76935  0.40592  0.57973  1.0000
  H   H182      1.0  0.72747  0.38754  0.54501  1.0000
  C   C237      1.0  0.60237  0.35467  0.35915  1.0000
  C   C238      1.0  0.62179  0.36822  0.43858  1.0000
  C   C239      1.0  0.65179  0.39854  0.43360  1.0000
  H   H183      1.0  0.66668  0.40639  0.48982  1.0000
  C   C240      1.0  0.61308  0.35075  0.52736  1.0000
  H   H184      1.0  0.58871  0.32859  0.52715  1.0000
  H   H185      1.0  0.61292  0.36710  0.57989  1.0000
  H   H186      1.0  0.63132  0.34361  0.54517  1.0000
  C   C241      1.0  0.85846  0.26361  0.35886  1.0000
  C   C242      1.0  0.87198  0.25769  0.43827  1.0000
  C   C243      1.0  0.90232  0.25806  0.43318  1.0000
  H   H187      1.0  0.91020  0.25102  0.48936  1.0000
  C   C244      1.0  0.85452  0.24889  0.52708  1.0000
  H   H188      1.0  0.83237  0.25109  0.52698  1.0000
  H   H189      1.0  0.87088  0.26537  0.57964  1.0000
  H   H190      1.0  0.84740  0.22350  0.54479  1.0000
  C   C245      1.0  0.75531  0.09858  0.35913  1.0000
  C   C246      1.0  0.76117  0.11803  0.43850  1.0000
  C   C247      1.0  0.76081  0.14801  0.43343  1.0000
  H   H191      1.0  0.76784  0.16293  0.48960  1.0000
  C   C248      1.0  0.76993  0.10936  0.52735  1.0000
  H   H192      1.0  0.76775  0.08501  0.52723  1.0000
  H   H193      1.0  0.75342  0.10921  0.57985  1.0000
  H   H194      1.0  0.79531  0.12762  0.54515  1.0000
  C   C249      1.0  0.92044  0.16056  0.35915  1.0000
  C   C250      1.0  0.90099  0.14701  0.43855  1.0000
  C   C251      1.0  0.87099  0.11668  0.43354  1.0000
  H   H195      1.0  0.85608  0.10883  0.48973  1.0000
  C   C252      1.0  0.90968  0.16447  0.52735  1.0000
  H   H196      1.0  0.93405  0.18662  0.52719  1.0000
  H   H197      1.0  0.90982  0.14811  0.57989  1.0000
  H   H198      1.0  0.89144  0.17161  0.54512  1.0000
  C   C253      1.0  0.93963  0.69539  0.34847  1.0000
  C   C254      1.0  0.97431  0.71319  0.33584  1.0000
  H   H199      1.0  0.98535  0.69918  0.33519  1.0000
  C   C255      1.0  0.54851  0.80203  0.33580  1.0000
  C   C256      1.0  0.58319  0.81984  0.34841  1.0000
  H   H200      1.0  0.53747  0.81603  0.33516  1.0000
  C   C257      1.0  0.82361  0.74799  0.34835  1.0000
  C   C258      1.0  0.80582  0.76487  0.33562  1.0000
  H   H201      1.0  0.81984  0.78992  0.33481  1.0000
  C   C259      1.0  0.71698  0.75028  0.33559  1.0000
  C   C260      1.0  0.69919  0.76717  0.34820  1.0000
  H   H202      1.0  0.70296  0.72523  0.33486  1.0000
  C   C261      1.0  0.77097  0.57940  0.34853  1.0000
  C   C262      1.0  0.75410  0.54473  0.33586  1.0000
  H   H203      1.0  0.72905  0.53369  0.33484  1.0000
  C   C263      1.0  0.76873  0.97052  0.33582  1.0000
  C   C264      1.0  0.75186  0.93586  0.34861  1.0000
  H   H204      1.0  0.79377  0.98156  0.33470  1.0000
  C   C265      1.0  0.60289  0.75180  0.35120  1.0000
  C   C266      1.0  0.61519  0.74365  0.27285  1.0000
  C   C267      1.0  0.64536  0.74327  0.27833  1.0000
  H   H205      1.0  0.65575  0.74106  0.21948  1.0000
  C   C268      1.0  0.60025  0.73933  0.18129  1.0000
  H   H206      1.0  0.57684  0.73909  0.18185  1.0000
  H   H207      1.0  0.59560  0.71588  0.15249  1.0000
  H   H208      1.0  0.61723  0.75935  0.13694  1.0000
  C   C269      1.0  0.76728  0.85486  0.35115  1.0000
  C   C270      1.0  0.77541  0.87540  0.27299  1.0000
  C   C271      1.0  0.77579  0.90595  0.27862  1.0000
  H   H209      1.0  0.77798  0.91855  0.21979  1.0000
  C   C272      1.0  0.77973  0.86483  0.18134  1.0000
  H   H210      1.0  0.78000  0.84168  0.18178  1.0000
  H   H211      1.0  0.80317  0.88366  0.15254  1.0000
  H   H212      1.0  0.75969  0.86179  0.13707  1.0000
  C   C273      1.0  0.66414  0.91617  0.35155  1.0000
  C   C274      1.0  0.64370  0.90383  0.27320  1.0000
  C   C275      1.0  0.61315  0.87365  0.27867  1.0000
  H   H213      1.0  0.60058  0.86326  0.21978  1.0000
  C   C276      1.0  0.65433  0.91873  0.18159  1.0000
  H   H214      1.0  0.67749  0.94215  0.18212  1.0000
  H   H215      1.0  0.63553  0.92335  0.15266  1.0000
  H   H216      1.0  0.65740  0.90174  0.13736  1.0000
  C   C277      1.0  0.91997  0.76347  0.35107  1.0000
  C   C278      1.0  0.90760  0.77155  0.27279  1.0000
  C   C279      1.0  0.87741  0.77190  0.27834  1.0000
  H   H217      1.0  0.86699  0.77408  0.21951  1.0000
  C   C280      1.0  0.92251  0.77586  0.18120  1.0000
  H   H218      1.0  0.94593  0.77612  0.18174  1.0000
  H   H219      1.0  0.92714  0.79930  0.15237  1.0000
  H   H220      1.0  0.90553  0.75582  0.13690  1.0000
  C   C281      1.0  0.75551  0.66028  0.35128  1.0000
  C   C282      1.0  0.74745  0.63984  0.27296  1.0000
  C   C283      1.0  0.74709  0.60931  0.27857  1.0000
  H   H221      1.0  0.74493  0.59672  0.21974  1.0000
  C   C284      1.0  0.74318  0.65045  0.18132  1.0000
  H   H222      1.0  0.74288  0.67360  0.18181  1.0000
  H   H223      1.0  0.71976  0.63163  0.15239  1.0000
  H   H224      1.0  0.76325  0.65353  0.13713  1.0000
  C   C285      1.0  0.85869  0.59908  0.35144  1.0000
  C   C286      1.0  0.87912  0.61142  0.27309  1.0000
  C   C287      1.0  0.90968  0.64159  0.27864  1.0000
  H   H225      1.0  0.92226  0.65199  0.21978  1.0000
  C   C288      1.0  0.86850  0.59653  0.18148  1.0000
  H   H226      1.0  0.84533  0.57311  0.18199  1.0000
  H   H227      1.0  0.88729  0.59189  0.15256  1.0000
  H   H228      1.0  0.86544  0.61352  0.13725  1.0000
  C   C289      1.0  0.99346  0.74861  0.33218  1.0000
  C   C290      1.0  0.97419  0.76478  0.33358  1.0000
  C   C291      1.0  0.93939  0.74791  0.34403  1.0000
  C   C292      1.0  0.92288  0.71332  0.35300  1.0000
  H   H229      1.0  0.98514  0.78979  0.32983  1.0000
  H   H230      1.0  0.89763  0.70065  0.35992  1.0000
  C   C293      1.0  0.52937  0.76661  0.33214  1.0000
  C   C294      1.0  0.59995  0.80191  0.35302  1.0000
  C   C295      1.0  0.58344  0.76733  0.34401  1.0000
  C   C296      1.0  0.54864  0.75044  0.33356  1.0000
  H   H231      1.0  0.62520  0.81459  0.35999  1.0000
  H   H232      1.0  0.53769  0.72543  0.32993  1.0000
  C   C297      1.0  0.77039  0.74862  0.33210  1.0000
  C   C298      1.0  0.75420  0.71318  0.33362  1.0000
  C   C299      1.0  0.77107  0.69525  0.34399  1.0000
  C   C300      1.0  0.80566  0.71330  0.35297  1.0000
  H   H233      1.0  0.72919  0.69913  0.33013  1.0000
  H   H234      1.0  0.81831  0.70070  0.35993  1.0000
  C   C301      1.0  0.75240  0.76653  0.33207  1.0000
  C   C302      1.0  0.71714  0.80186  0.35274  1.0000
  C   C303      1.0  0.75172  0.81990  0.34382  1.0000
  C   C304      1.0  0.76860  0.80198  0.33357  1.0000
  H   H235      1.0  0.70448  0.81445  0.35970  1.0000
  H   H236      1.0  0.79361  0.81602  0.33002  1.0000
  C   C305      1.0  0.77037  0.52558  0.33220  1.0000
  C   C306      1.0  0.80581  0.54485  0.33372  1.0000
  C   C307      1.0  0.82372  0.57964  0.34428  1.0000
  C   C308      1.0  0.80565  0.59616  0.35321  1.0000
  H   H237      1.0  0.81987  0.53390  0.33017  1.0000
  H   H238      1.0  0.81823  0.62141  0.36026  1.0000
  C   C309      1.0  0.75245  0.98968  0.33222  1.0000
  C   C310      1.0  0.71717  0.91911  0.35330  1.0000
  C   C311      1.0  0.69910  0.93562  0.34436  1.0000
  C   C312      1.0  0.71701  0.97041  0.33383  1.0000
  H   H239      1.0  0.70459  0.89386  0.36039  1.0000
  H   H240      1.0  0.70296  0.98136  0.33019  1.0000
  C   C313      1.0  0.66434  0.75155  0.35880  1.0000
  C   C314      1.0  0.65086  0.75748  0.43827  1.0000
  C   C315      1.0  0.62053  0.75716  0.43326  1.0000
  H   H241      1.0  0.61270  0.76423  0.48945  1.0000
  C   C316      1.0  0.66834  0.76627  0.52704  1.0000
  H   H242      1.0  0.69048  0.76403  0.52687  1.0000
  H   H243      1.0  0.65199  0.74980  0.57962  1.0000
  H   H244      1.0  0.67550  0.79166  0.54476  1.0000
  C   C317      1.0  0.76749  0.91666  0.35906  1.0000
  C   C318      1.0  0.76162  0.89717  0.43836  1.0000
  C   C319      1.0  0.76196  0.86718  0.43322  1.0000
  H   H245      1.0  0.75491  0.85225  0.48938  1.0000
  C   C320      1.0  0.75285  0.90580  0.52725  1.0000
  H   H246      1.0  0.75506  0.93016  0.52723  1.0000
  H   H247      1.0  0.76935  0.90592  0.57973  1.0000
  H   H248      1.0  0.72747  0.88754  0.54501  1.0000
  C   C321      1.0  0.60237  0.85467  0.35915  1.0000
  C   C322      1.0  0.62178  0.86821  0.43858  1.0000
  C   C323      1.0  0.65179  0.89854  0.43360  1.0000
  H   H249      1.0  0.66668  0.90639  0.48982  1.0000
  C   C324      1.0  0.61307  0.85075  0.52736  1.0000
  H   H250      1.0  0.58871  0.82859  0.52715  1.0000
  H   H251      1.0  0.61292  0.86710  0.57989  1.0000
  H   H252      1.0  0.63132  0.84361  0.54517  1.0000
  C   C325      1.0  0.85845  0.76361  0.35886  1.0000
  C   C326      1.0  0.87197  0.75769  0.43827  1.0000
  C   C327      1.0  0.90233  0.75806  0.43318  1.0000
  H   H253      1.0  0.91020  0.75102  0.48936  1.0000
  C   C328      1.0  0.85452  0.74889  0.52708  1.0000
  H   H254      1.0  0.83237  0.75109  0.52698  1.0000
  H   H255      1.0  0.87088  0.76537  0.57964  1.0000
  H   H256      1.0  0.84740  0.72350  0.54479  1.0000
  C   C329      1.0  0.75531  0.59858  0.35913  1.0000
  C   C330      1.0  0.76116  0.61803  0.43850  1.0000
  C   C331      1.0  0.76081  0.64801  0.43343  1.0000
  H   H257      1.0  0.76784  0.66293  0.48960  1.0000
  C   C332      1.0  0.76993  0.60936  0.52735  1.0000
  H   H258      1.0  0.76775  0.58501  0.52723  1.0000
  H   H259      1.0  0.75342  0.60921  0.57985  1.0000
  H   H260      1.0  0.79531  0.62762  0.54515  1.0000
  C   C333      1.0  0.92044  0.66056  0.35915  1.0000
  C   C334      1.0  0.90099  0.64701  0.43855  1.0000
  C   C335      1.0  0.87099  0.61668  0.43354  1.0000
  H   H261      1.0  0.85608  0.60882  0.48973  1.0000
  C   C336      1.0  0.90968  0.66447  0.52735  1.0000
  H   H262      1.0  0.93405  0.68662  0.52719  1.0000
  H   H263      1.0  0.90982  0.64811  0.57989  1.0000
  H   H264      1.0  0.89144  0.67161  0.54512  1.0000
