data_image0
_chemical_formula_structural       C7H2N2O4NC7H2N2O4NC7H2N2O4NC7H2N2O4NC7H2N2O4NC7H2N2O4NC3H2C2H2NC3H2C2H2NC3H2C2H2NC3H2C2H2NC3H2C2H2NC3H2C2H2NC7H2N2O4NC7H2N2O4NC7H2N2O4NC7H2N2O4NC7H2N2O4NC7H2N2O4NC6H3C3H3C6H3C3H3C6H3C3H3C6H3C3H3C6H3C3H3C6H3C3H3C6H3C3H3C6H3C3H3C6H3C3H3C6H3C3H3C6H3C3H3C6H3C3H3C3H2C2H2NC3H2C2H2NC3H2C2H2NC3H2C2H2NC3H2C2H2NC3H2C2H2NC7H2N2O4NC7H2N2O4NC7H2N2O4NC7H2N2O4NC7H2N2O4NC7H2N2O4NC3H2C2H2NC3H2C2H2NC3H2C2H2NC3H2C2H2NC3H2C2H2NC3H2C2H2N
_chemical_formula_sum              "C324 H180 N72 O72"
_cell_length_a       79.7009
_cell_length_b       79.7009
_cell_length_c       14.9734
_cell_angle_alpha    90
_cell_angle_beta     90
_cell_angle_gamma    120

_space_group_name_H-M_alt    "P 1"
_space_group_IT_number       1

loop_
  _space_group_symop_operation_xyz
  'x, y, z'

loop_
  _atom_site_type_symbol
  _atom_site_label
  _atom_site_symmetry_multiplicity
  _atom_site_fract_x
  _atom_site_fract_y
  _atom_site_fract_z
  _atom_site_occupancy
  C   C1        1.0  0.18475  0.43970  0.27190  1.0000
  C   C2        1.0  0.20245  0.43951  0.27008  1.0000
  C   C3        1.0  0.21854  0.45252  0.32227  1.0000
  C   C4        1.0  0.23647  0.45258  0.31897  1.0000
  C   C5        1.0  0.24678  0.45522  0.23778  1.0000
  C   C6        1.0  0.26484  0.45578  0.23936  1.0000
  C   C7        1.0  0.27308  0.45417  0.31994  1.0000
  H   H1        1.0  0.27232  0.45794  0.18087  1.0000
  H   H2        1.0  0.20349  0.42964  0.23022  1.0000
  N   N1        1.0  0.23933  0.45808  0.15685  1.0000
  N   N2        1.0  0.16875  0.42684  0.21870  1.0000
  O   O1        1.0  0.23655  0.44533  0.10009  1.0000
  O   O2        1.0  0.16310  0.40949  0.23830  1.0000
  O   O3        1.0  0.25049  0.47446  0.12380  1.0000
  O   O4        1.0  0.17292  0.42929  0.13701  1.0000
  N   N3        1.0  0.29026  0.45520  0.31627  1.0000
  C   C8        1.0  0.57670  0.75965  0.27190  1.0000
  C   C9        1.0  0.57688  0.77754  0.27006  1.0000
  C   C10       1.0  0.56388  0.78062  0.32225  1.0000
  C   C11       1.0  0.56381  0.79849  0.31891  1.0000
  C   C12       1.0  0.56115  0.80614  0.23771  1.0000
  C   C13       1.0  0.56056  0.82363  0.23927  1.0000
  C   C14       1.0  0.56219  0.83349  0.31981  1.0000
  H   H3        1.0  0.55839  0.82893  0.18076  1.0000
  H   H4        1.0  0.58675  0.78845  0.23016  1.0000
  N   N4        1.0  0.55829  0.79582  0.15682  1.0000
  N   N5        1.0  0.58955  0.75650  0.21867  1.0000
  O   O5        1.0  0.57103  0.80580  0.10000  1.0000
  O   O6        1.0  0.60690  0.76820  0.23823  1.0000
  O   O7        1.0  0.54190  0.79058  0.12382  1.0000
  O   O8        1.0  0.58709  0.75822  0.13698  1.0000
  N   N6        1.0  0.56111  0.84962  0.31608  1.0000
  C   C15       1.0  0.25673  0.83164  0.27191  1.0000
  C   C16       1.0  0.23885  0.81394  0.27007  1.0000
  C   C17       1.0  0.23576  0.79785  0.32228  1.0000
  C   C18       1.0  0.21789  0.77991  0.31895  1.0000
  C   C19       1.0  0.21024  0.76960  0.23775  1.0000
  C   C20       1.0  0.19274  0.75153  0.23931  1.0000
  C   C21       1.0  0.18288  0.74330  0.31985  1.0000
  H   H5        1.0  0.18743  0.74406  0.18080  1.0000
  H   H6        1.0  0.22794  0.81290  0.23016  1.0000
  N   N7        1.0  0.22055  0.77706  0.15685  1.0000
  N   N8        1.0  0.25988  0.84763  0.21866  1.0000
  O   O9        1.0  0.21057  0.77982  0.10005  1.0000
  O   O10       1.0  0.24818  0.85329  0.23819  1.0000
  O   O11       1.0  0.22578  0.76590  0.12383  1.0000
  O   O12       1.0  0.25817  0.84346  0.13698  1.0000
  N   N9        1.0  0.16673  0.72611  0.31615  1.0000
  C   C22       1.0  0.82737  0.58095  0.27188  1.0000
  C   C23       1.0  0.80967  0.58114  0.27004  1.0000
  C   C24       1.0  0.79359  0.56815  0.32229  1.0000
  C   C25       1.0  0.77565  0.56808  0.31893  1.0000
  C   C26       1.0  0.76533  0.56540  0.23774  1.0000
  C   C27       1.0  0.74725  0.56482  0.23927  1.0000
  C   C28       1.0  0.73901  0.56643  0.31980  1.0000
  H   H7        1.0  0.73977  0.56260  0.18078  1.0000
  H   H8        1.0  0.80863  0.59100  0.23010  1.0000
  N   N10       1.0  0.77278  0.56252  0.15685  1.0000
  N   N11       1.0  0.84336  0.59379  0.21861  1.0000
  O   O13       1.0  0.77554  0.57525  0.09999  1.0000
  O   O14       1.0  0.84902  0.61115  0.23811  1.0000
  O   O15       1.0  0.76163  0.54613  0.12391  1.0000
  O   O16       1.0  0.83919  0.59132  0.13694  1.0000
  N   N12       1.0  0.72179  0.56533  0.31604  1.0000
  C   C29       1.0  0.43542  0.26101  0.27192  1.0000
  C   C30       1.0  0.43523  0.24312  0.27007  1.0000
  C   C31       1.0  0.44823  0.24003  0.32230  1.0000
  C   C32       1.0  0.44829  0.22216  0.31894  1.0000
  C   C33       1.0  0.45097  0.21452  0.23774  1.0000
  C   C34       1.0  0.45155  0.19703  0.23927  1.0000
  C   C35       1.0  0.44994  0.18717  0.31980  1.0000
  H   H9        1.0  0.45375  0.19174  0.18077  1.0000
  H   H10       1.0  0.42537  0.23222  0.23015  1.0000
  N   N13       1.0  0.45383  0.22484  0.15685  1.0000
  N   N14       1.0  0.42258  0.26417  0.21866  1.0000
  O   O17       1.0  0.44110  0.21487  0.10001  1.0000
  O   O18       1.0  0.40523  0.25247  0.23818  1.0000
  O   O19       1.0  0.47022  0.23009  0.12388  1.0000
  O   O20       1.0  0.42504  0.26245  0.13698  1.0000
  N   N15       1.0  0.45103  0.17105  0.31605  1.0000
  C   C36       1.0  0.75537  0.18901  0.27189  1.0000
  C   C37       1.0  0.77326  0.20670  0.27004  1.0000
  C   C38       1.0  0.77635  0.22279  0.32228  1.0000
  C   C39       1.0  0.79422  0.24073  0.31893  1.0000
  C   C40       1.0  0.80187  0.25104  0.23772  1.0000
  C   C41       1.0  0.81936  0.26912  0.23926  1.0000
  C   C42       1.0  0.82922  0.27735  0.31979  1.0000
  H   H11       1.0  0.82466  0.27659  0.18076  1.0000
  H   H12       1.0  0.78416  0.20774  0.23010  1.0000
  N   N16       1.0  0.79155  0.24358  0.15684  1.0000
  N   N17       1.0  0.75221  0.17301  0.21861  1.0000
  O   O21       1.0  0.80152  0.24082  0.09999  1.0000
  O   O22       1.0  0.76391  0.16735  0.23810  1.0000
  O   O23       1.0  0.78630  0.25473  0.12387  1.0000
  O   O24       1.0  0.75392  0.17719  0.13694  1.0000
  N   N18       1.0  0.84535  0.29455  0.31606  1.0000
  C   C43       1.0  0.13867  0.53318  0.36174  1.0000
  C   C44       1.0  0.15279  0.56660  0.30927  1.0000
  C   C45       1.0  0.15245  0.54879  0.30996  1.0000
  H   H13       1.0  0.16283  0.57762  0.27041  1.0000
  H   H14       1.0  0.16210  0.54717  0.27104  1.0000
  C   C46       1.0  0.13532  0.61083  0.27228  1.0000
  C   C47       1.0  0.13644  0.59381  0.27706  1.0000
  H   H15       1.0  0.13291  0.61511  0.21159  1.0000
  H   H16       1.0  0.13448  0.58604  0.21970  1.0000
  N   N19       1.0  0.13881  0.51659  0.35882  1.0000
  C   C48       1.0  0.48319  0.62010  0.36174  1.0000
  C   C49       1.0  0.44978  0.60080  0.30923  1.0000
  C   C50       1.0  0.46758  0.61827  0.30995  1.0000
  H   H17       1.0  0.43876  0.59982  0.27037  1.0000
  H   H18       1.0  0.46920  0.62954  0.27102  1.0000
  C   C51       1.0  0.40555  0.53909  0.27223  1.0000
  C   C52       1.0  0.42256  0.55724  0.27700  1.0000
  H   H19       1.0  0.40127  0.53241  0.21154  1.0000
  H   H20       1.0  0.43034  0.56304  0.21965  1.0000
  N   N20       1.0  0.49978  0.63682  0.35883  1.0000
  C   C53       1.0  0.39628  0.87769  0.36174  1.0000
  C   C54       1.0  0.41558  0.86358  0.30926  1.0000
  C   C55       1.0  0.39812  0.86392  0.30994  1.0000
  H   H21       1.0  0.41657  0.85354  0.27041  1.0000
  H   H22       1.0  0.38684  0.85425  0.27106  1.0000
  C   C56       1.0  0.47729  0.88106  0.27223  1.0000
  C   C57       1.0  0.45915  0.87994  0.27701  1.0000
  H   H23       1.0  0.48397  0.88345  0.21153  1.0000
  H   H24       1.0  0.45333  0.88189  0.21965  1.0000
  N   N21       1.0  0.37956  0.87756  0.35884  1.0000
  C   C58       1.0  0.87344  0.48747  0.36174  1.0000
  C   C59       1.0  0.85932  0.45406  0.30924  1.0000
  C   C60       1.0  0.85967  0.47187  0.30993  1.0000
  H   H25       1.0  0.84928  0.44304  0.27038  1.0000
  H   H26       1.0  0.85001  0.47348  0.27104  1.0000
  C   C61       1.0  0.87680  0.40983  0.27224  1.0000
  C   C62       1.0  0.87567  0.42685  0.27701  1.0000
  H   H27       1.0  0.87920  0.40555  0.21154  1.0000
  H   H28       1.0  0.87764  0.43462  0.21965  1.0000
  N   N22       1.0  0.87331  0.50406  0.35886  1.0000
  C   C63       1.0  0.52891  0.40057  0.36178  1.0000
  C   C64       1.0  0.56232  0.41987  0.30926  1.0000
  C   C65       1.0  0.54451  0.40240  0.31001  1.0000
  H   H29       1.0  0.57334  0.42085  0.27040  1.0000
  H   H30       1.0  0.54290  0.39112  0.27111  1.0000
  C   C66       1.0  0.60654  0.48156  0.27199  1.0000
  C   C67       1.0  0.58951  0.46342  0.27687  1.0000
  H   H31       1.0  0.61081  0.48822  0.21125  1.0000
  H   H32       1.0  0.58174  0.45760  0.21953  1.0000
  N   N23       1.0  0.51232  0.38384  0.35890  1.0000
  C   C68       1.0  0.61581  0.14294  0.36174  1.0000
  C   C69       1.0  0.59649  0.15703  0.30922  1.0000
  C   C70       1.0  0.61397  0.15670  0.30996  1.0000
  H   H33       1.0  0.59550  0.16706  0.27036  1.0000
  H   H34       1.0  0.62524  0.16637  0.27105  1.0000
  C   C71       1.0  0.53480  0.13954  0.27204  1.0000
  C   C72       1.0  0.55294  0.14066  0.27689  1.0000
  H   H35       1.0  0.52813  0.13715  0.21132  1.0000
  H   H36       1.0  0.55875  0.13870  0.21955  1.0000
  N   N24       1.0  0.63253  0.14307  0.35885  1.0000
  C   C73       1.0  0.04631  0.42073  0.25401  1.0000
  C   C74       1.0  0.02604  0.40810  0.25104  1.0000
  C   C75       1.0  0.01709  0.39010  0.29615  1.0000
  C   C76       1.0  0.99647  0.37857  0.29717  1.0000
  C   C77       1.0  0.98540  0.37289  0.21703  1.0000
  C   C78       1.0  0.96499  0.36443  0.22157  1.0000
  C   C79       1.0  0.95534  0.36119  0.30403  1.0000
  H   H37       1.0  0.95717  0.36112  0.16353  1.0000
  H   H38       1.0  0.01771  0.41253  0.21777  1.0000
  N   N25       1.0  0.99489  0.37588  0.13362  1.0000
  N   N26       1.0  0.05508  0.43890  0.20993  1.0000
  O   O25       1.0  0.99181  0.38670  0.08345  1.0000
  O   O26       1.0  0.04891  0.44957  0.23955  1.0000
  O   O27       1.0  0.98951  0.36010  0.09399  1.0000
  O   O28       1.0  0.05211  0.43689  0.12718  1.0000
  N   N27       1.0  0.93681  0.35636  0.30278  1.0000
  C   C80       1.0  0.59562  0.64015  0.25419  1.0000
  C   C81       1.0  0.60826  0.63251  0.25120  1.0000
  C   C82       1.0  0.62625  0.64156  0.29629  1.0000
  C   C83       1.0  0.63780  0.63249  0.29724  1.0000
  C   C84       1.0  0.64347  0.62709  0.21709  1.0000
  C   C85       1.0  0.65191  0.61513  0.22160  1.0000
  C   C86       1.0  0.65510  0.60867  0.30403  1.0000
  H   H39       1.0  0.65523  0.61063  0.16355  1.0000
  H   H40       1.0  0.60384  0.61975  0.21790  1.0000
  N   N28       1.0  0.64050  0.63362  0.13371  1.0000
  N   N29       1.0  0.57745  0.63074  0.21014  1.0000
  O   O29       1.0  0.62968  0.61973  0.08350  1.0000
  O   O30       1.0  0.56679  0.61390  0.23974  1.0000
  O   O31       1.0  0.65629  0.64402  0.09412  1.0000
  O   O32       1.0  0.57945  0.62979  0.12738  1.0000
  N   N30       1.0  0.65995  0.59498  0.30283  1.0000
  C   C87       1.0  0.37623  0.97007  0.25415  1.0000
  C   C88       1.0  0.38387  0.99035  0.25115  1.0000
  C   C89       1.0  0.37482  0.99929  0.29623  1.0000
  C   C90       1.0  0.38388  0.01991  0.29718  1.0000
  C   C91       1.0  0.38926  0.03097  0.21703  1.0000
  C   C92       1.0  0.40121  0.05138  0.22153  1.0000
  C   C93       1.0  0.40766  0.06104  0.30395  1.0000
  H   H41       1.0  0.40570  0.05919  0.16348  1.0000
  H   H42       1.0  0.39661  0.99868  0.21777  1.0000
  N   N31       1.0  0.38273  0.02148  0.13365  1.0000
  N   N32       1.0  0.38563  0.96130  0.21005  1.0000
  O   O33       1.0  0.39662  0.02455  0.08342  1.0000
  O   O34       1.0  0.40247  0.96749  0.23960  1.0000
  O   O35       1.0  0.37233  0.02686  0.09408  1.0000
  O   O36       1.0  0.38658  0.96426  0.12729  1.0000
  N   N33       1.0  0.42134  0.07957  0.30273  1.0000
  C   C94       1.0  0.96579  0.59993  0.25393  1.0000
  C   C95       1.0  0.98607  0.61257  0.25091  1.0000
  C   C96       1.0  0.99502  0.63055  0.29611  1.0000
  C   C97       1.0  0.01564  0.64209  0.29712  1.0000
  C   C98       1.0  0.02670  0.64778  0.21696  1.0000
  C   C99       1.0  0.04711  0.65625  0.22149  1.0000
  C   C100      1.0  0.05676  0.65945  0.30391  1.0000
  H   H43       1.0  0.05492  0.65956  0.16344  1.0000
  H   H44       1.0  0.99440  0.60814  0.21763  1.0000
  N   N34       1.0  0.01721  0.64480  0.13358  1.0000
  N   N35       1.0  0.95702  0.58176  0.20983  1.0000
  O   O37       1.0  0.02029  0.63399  0.08335  1.0000
  O   O38       1.0  0.96320  0.57110  0.23939  1.0000
  O   O39       1.0  0.02258  0.66059  0.09399  1.0000
  O   O40       1.0  0.95998  0.58378  0.12707  1.0000
  N   N36       1.0  0.07529  0.66427  0.30272  1.0000
  C   C101      1.0  0.41647  0.38048  0.25401  1.0000
  C   C102      1.0  0.40383  0.38812  0.25103  1.0000
  C   C103      1.0  0.38584  0.37908  0.29615  1.0000
  C   C104      1.0  0.37431  0.38817  0.29717  1.0000
  C   C105      1.0  0.36863  0.39356  0.21703  1.0000
  C   C106      1.0  0.36017  0.40550  0.22157  1.0000
  C   C107      1.0  0.35693  0.41191  0.30402  1.0000
  H   H45       1.0  0.35686  0.41001  0.16352  1.0000
  H   H46       1.0  0.40826  0.40087  0.21774  1.0000
  N   N37       1.0  0.37161  0.38705  0.13362  1.0000
  N   N38       1.0  0.43464  0.38987  0.20993  1.0000
  O   O41       1.0  0.38244  0.40096  0.08344  1.0000
  O   O42       1.0  0.44530  0.40671  0.23953  1.0000
  O   O43       1.0  0.35584  0.37665  0.09401  1.0000
  O   O44       1.0  0.43263  0.39083  0.12717  1.0000
  N   N39       1.0  0.35210  0.42562  0.30277  1.0000
  C   C108      1.0  0.63587  0.05057  0.25423  1.0000
  C   C109      1.0  0.62825  0.03030  0.25121  1.0000
  C   C110      1.0  0.63730  0.02136  0.29629  1.0000
  C   C111      1.0  0.62824  0.00074  0.29720  1.0000
  C   C112      1.0  0.62285  0.98968  0.21703  1.0000
  C   C113      1.0  0.61089  0.96928  0.22151  1.0000
  C   C114      1.0  0.60444  0.95963  0.30394  1.0000
  H   H47       1.0  0.60639  0.96146  0.16346  1.0000
  H   H48       1.0  0.61549  0.02197  0.21791  1.0000
  N   N40       1.0  0.62936  0.99918  0.13367  1.0000
  N   N41       1.0  0.62647  0.05934  0.21019  1.0000
  O   O45       1.0  0.61547  0.99612  0.08347  1.0000
  O   O46       1.0  0.60963  0.05316  0.23979  1.0000
  O   O47       1.0  0.63977  0.99380  0.09403  1.0000
  O   O48       1.0  0.62551  0.05638  0.12743  1.0000
  N   N42       1.0  0.59075  0.94109  0.30274  1.0000
  C   C115      1.0  0.14548  0.46660  0.33338  1.0000
  C   C116      1.0  0.14438  0.48381  0.33125  1.0000
  C   C117      1.0  0.12646  0.48342  0.33256  1.0000
  C   C118      1.0  0.10931  0.46521  0.33564  1.0000
  C   C119      1.0  0.10964  0.44760  0.33693  1.0000
  C   C120      1.0  0.12790  0.44860  0.33646  1.0000
  H   H49       1.0  0.09626  0.46482  0.33775  1.0000
  H   H50       1.0  0.12835  0.43599  0.33801  1.0000
  H   H51       1.0  0.15691  0.49696  0.32829  1.0000
  C   C121      1.0  0.12518  0.50018  0.33000  1.0000
  C   C122      1.0  0.09245  0.42980  0.34013  1.0000
  C   C123      1.0  0.16370  0.46813  0.33329  1.0000
  H   H52       1.0  0.17534  0.48132  0.33642  1.0000
  H   H53       1.0  0.09234  0.41829  0.36626  1.0000
  H   H54       1.0  0.11303  0.49931  0.30693  1.0000
  C   C124      1.0  0.54978  0.69347  0.33337  1.0000
  C   C125      1.0  0.53257  0.67517  0.33121  1.0000
  C   C126      1.0  0.53295  0.65764  0.33252  1.0000
  C   C127      1.0  0.55116  0.65870  0.33564  1.0000
  C   C128      1.0  0.56877  0.67663  0.33697  1.0000
  C   C129      1.0  0.56778  0.69389  0.33648  1.0000
  H   H55       1.0  0.55154  0.64603  0.33778  1.0000
  H   H56       1.0  0.58039  0.70696  0.33807  1.0000
  H   H57       1.0  0.51942  0.67455  0.32822  1.0000
  C   C130      1.0  0.51618  0.63960  0.32995  1.0000
  C   C131      1.0  0.58656  0.67723  0.34024  1.0000
  C   C132      1.0  0.54826  0.71018  0.33327  1.0000
  H   H58       1.0  0.53507  0.70863  0.33638  1.0000
  H   H59       1.0  0.59808  0.68863  0.36643  1.0000
  H   H60       1.0  0.51705  0.62832  0.30683  1.0000
  C   C133      1.0  0.32291  0.87090  0.33344  1.0000
  C   C134      1.0  0.34121  0.87199  0.33124  1.0000
  C   C135      1.0  0.35874  0.88991  0.33251  1.0000
  C   C136      1.0  0.35769  0.90706  0.33562  1.0000
  C   C137      1.0  0.33975  0.90674  0.33699  1.0000
  C   C138      1.0  0.32249  0.88849  0.33655  1.0000
  H   H61       1.0  0.37035  0.92010  0.33771  1.0000
  H   H62       1.0  0.30942  0.88803  0.33817  1.0000
  H   H63       1.0  0.34183  0.85946  0.32826  1.0000
  C   C139      1.0  0.37678  0.89118  0.32989  1.0000
  C   C140      1.0  0.33915  0.92393  0.34025  1.0000
  C   C141      1.0  0.30620  0.85268  0.33341  1.0000
  H   H64       1.0  0.30775  0.84104  0.33659  1.0000
  H   H65       1.0  0.32776  0.92405  0.36642  1.0000
  H   H66       1.0  0.38806  0.90332  0.30674  1.0000
  C   C142      1.0  0.86664  0.55405  0.33355  1.0000
  C   C143      1.0  0.86773  0.53684  0.33139  1.0000
  C   C144      1.0  0.88565  0.53723  0.33261  1.0000
  C   C145      1.0  0.90280  0.55544  0.33566  1.0000
  C   C146      1.0  0.90247  0.57306  0.33701  1.0000
  C   C147      1.0  0.88422  0.57206  0.33661  1.0000
  H   H67       1.0  0.91585  0.55583  0.33772  1.0000
  H   H68       1.0  0.88376  0.58467  0.33821  1.0000
  H   H69       1.0  0.85520  0.52369  0.32846  1.0000
  C   C148      1.0  0.88693  0.52047  0.33003  1.0000
  C   C149      1.0  0.91966  0.59085  0.34018  1.0000
  C   C150      1.0  0.84841  0.55253  0.33359  1.0000
  H   H70       1.0  0.83678  0.53935  0.33691  1.0000
  H   H71       1.0  0.91978  0.60236  0.36636  1.0000
  H   H72       1.0  0.89908  0.52134  0.30692  1.0000
  C   C151      1.0  0.46233  0.32718  0.33354  1.0000
  C   C152      1.0  0.47954  0.34548  0.33136  1.0000
  C   C153      1.0  0.47915  0.36301  0.33258  1.0000
  C   C154      1.0  0.46094  0.36196  0.33564  1.0000
  C   C155      1.0  0.44333  0.34402  0.33703  1.0000
  C   C156      1.0  0.44433  0.32676  0.33662  1.0000
  H   H73       1.0  0.46056  0.37462  0.33771  1.0000
  H   H74       1.0  0.43171  0.31369  0.33824  1.0000
  H   H75       1.0  0.49269  0.34610  0.32840  1.0000
  C   C157      1.0  0.49592  0.38106  0.32994  1.0000
  C   C158      1.0  0.42554  0.34341  0.34021  1.0000
  C   C159      1.0  0.46385  0.31048  0.33356  1.0000
  H   H76       1.0  0.47703  0.31202  0.33686  1.0000
  H   H77       1.0  0.41402  0.33202  0.36640  1.0000
  H   H78       1.0  0.49505  0.39233  0.30679  1.0000
  C   C160      1.0  0.68920  0.14975  0.33353  1.0000
  C   C161      1.0  0.67090  0.14866  0.33128  1.0000
  C   C162      1.0  0.65336  0.13074  0.33247  1.0000
  C   C163      1.0  0.65442  0.11359  0.33556  1.0000
  C   C164      1.0  0.67236  0.11391  0.33703  1.0000
  C   C165      1.0  0.68961  0.13216  0.33665  1.0000
  H   H79       1.0  0.64175  0.10054  0.33763  1.0000
  H   H80       1.0  0.70268  0.13262  0.33833  1.0000
  H   H81       1.0  0.67028  0.16119  0.32828  1.0000
  C   C166      1.0  0.63532  0.12947  0.32977  1.0000
  C   C167      1.0  0.67295  0.09672  0.34030  1.0000
  C   C168      1.0  0.70590  0.16797  0.33357  1.0000
  H   H82       1.0  0.70435  0.17961  0.33691  1.0000
  H   H83       1.0  0.68434  0.09660  0.36653  1.0000
  H   H84       1.0  0.62405  0.11733  0.30657  1.0000
  C   C169      1.0  0.45828  0.14725  0.35360  1.0000
  C   C170      1.0  0.47602  0.14815  0.33342  1.0000
  C   C171      1.0  0.47676  0.13106  0.31703  1.0000
  C   C172      1.0  0.45944  0.11300  0.32161  1.0000
  C   C173      1.0  0.44153  0.11170  0.34316  1.0000
  C   C174      1.0  0.44117  0.12900  0.35930  1.0000
  H   H85       1.0  0.46002  0.10054  0.31216  1.0000
  H   H86       1.0  0.42838  0.12830  0.37650  1.0000
  H   H87       1.0  0.48852  0.16134  0.33041  1.0000
  C   C175      1.0  0.49399  0.13164  0.29770  1.0000
  C   C176      1.0  0.42500  0.09379  0.35504  1.0000
  C   C177      1.0  0.45803  0.16404  0.37262  1.0000
  H   H88       1.0  0.46439  0.17116  0.42841  1.0000
  H   H89       1.0  0.41642  0.09180  0.40702  1.0000
  H   H90       1.0  0.49430  0.12373  0.24702  1.0000
  C   C178      1.0  0.69076  0.55811  0.35362  1.0000
  C   C179      1.0  0.67392  0.54035  0.33333  1.0000
  C   C180      1.0  0.65610  0.53960  0.31690  1.0000
  C   C181      1.0  0.65532  0.55690  0.32153  1.0000
  C   C182      1.0  0.67192  0.57482  0.34317  1.0000
  C   C183      1.0  0.68959  0.57520  0.35937  1.0000
  H   H91       1.0  0.64228  0.55631  0.31205  1.0000
  H   H92       1.0  0.70167  0.58800  0.37665  1.0000
  H   H93       1.0  0.67463  0.52787  0.33030  1.0000
  C   C184      1.0  0.63946  0.52236  0.29751  1.0000
  C   C185      1.0  0.67051  0.59134  0.35515  1.0000
  C   C186      1.0  0.70781  0.55838  0.37271  1.0000
  H   H94       1.0  0.70858  0.55207  0.42866  1.0000
  H   H95       1.0  0.67714  0.59993  0.40702  1.0000
  H   H96       1.0  0.63126  0.52204  0.24673  1.0000
  C   C187      1.0  0.86912  0.32561  0.35358  1.0000
  C   C188      1.0  0.86824  0.34249  0.33356  1.0000
  C   C189      1.0  0.88533  0.36030  0.31725  1.0000
  C   C190      1.0  0.90339  0.36104  0.32181  1.0000
  C   C191      1.0  0.90468  0.34441  0.34312  1.0000
  C   C192      1.0  0.88737  0.32674  0.35918  1.0000
  H   H97       1.0  0.91585  0.37406  0.31234  1.0000
  H   H98       1.0  0.88806  0.31464  0.37626  1.0000
  H   H99       1.0  0.85506  0.34181  0.33063  1.0000
  C   C193      1.0  0.88479  0.37698  0.29818  1.0000
  C   C194      1.0  0.92259  0.34578  0.35500  1.0000
  C   C195      1.0  0.85233  0.30858  0.37255  1.0000
  H   H100      1.0  0.84516  0.30785  0.42813  1.0000
  H   H101      1.0  0.92455  0.33912  0.40678  1.0000
  H   H102      1.0  0.89260  0.38515  0.24719  1.0000
  C   C196      1.0  0.55383  0.87340  0.35360  1.0000
  C   C197      1.0  0.53608  0.87251  0.33357  1.0000
  C   C198      1.0  0.53536  0.88960  0.31722  1.0000
  C   C199      1.0  0.55267  0.90766  0.32176  1.0000
  C   C200      1.0  0.57059  0.90896  0.34308  1.0000
  C   C201      1.0  0.57095  0.89165  0.35922  1.0000
  H   H103      1.0  0.55210  0.92011  0.31226  1.0000
  H   H104      1.0  0.58374  0.89234  0.37627  1.0000
  H   H105      1.0  0.52358  0.85932  0.33065  1.0000
  C   C202      1.0  0.51812  0.88905  0.29814  1.0000
  C   C203      1.0  0.58713  0.92687  0.35494  1.0000
  C   C204      1.0  0.55409  0.85661  0.37262  1.0000
  H   H106      1.0  0.54767  0.84946  0.42827  1.0000
  H   H107      1.0  0.59575  0.92884  0.40671  1.0000
  H   H108      1.0  0.51777  0.89685  0.24711  1.0000
  C   C205      1.0  0.32134  0.46255  0.35366  1.0000
  C   C206      1.0  0.33821  0.48030  0.33363  1.0000
  C   C207      1.0  0.35602  0.48102  0.31726  1.0000
  C   C208      1.0  0.35677  0.46371  0.32179  1.0000
  C   C209      1.0  0.34014  0.44579  0.34312  1.0000
  C   C210      1.0  0.32248  0.44543  0.35924  1.0000
  H   H109      1.0  0.36979  0.46428  0.31228  1.0000
  H   H110      1.0  0.31038  0.43264  0.37632  1.0000
  H   H111      1.0  0.33753  0.49280  0.33071  1.0000
  C   C211      1.0  0.37270  0.49825  0.29816  1.0000
  C   C212      1.0  0.34152  0.42925  0.35498  1.0000
  C   C213      1.0  0.30430  0.46229  0.37270  1.0000
  H   H112      1.0  0.30362  0.46886  0.42794  1.0000
  H   H113      1.0  0.33486  0.42063  0.40676  1.0000
  H   H114      1.0  0.38086  0.49861  0.24713  1.0000
  C   C214      1.0  0.14298  0.69504  0.35358  1.0000
  C   C215      1.0  0.14386  0.67817  0.33362  1.0000
  C   C216      1.0  0.12678  0.66035  0.31729  1.0000
  C   C217      1.0  0.10871  0.65961  0.32181  1.0000
  C   C218      1.0  0.10742  0.67624  0.34309  1.0000
  C   C219      1.0  0.12473  0.69390  0.35917  1.0000
  H   H115      1.0  0.09626  0.64658  0.31232  1.0000
  H   H116      1.0  0.12404  0.70600  0.37622  1.0000
  H   H117      1.0  0.15705  0.67885  0.33071  1.0000
  C   C220      1.0  0.12732  0.64367  0.29822  1.0000
  C   C221      1.0  0.08951  0.67487  0.35492  1.0000
  C   C222      1.0  0.15977  0.71208  0.37260  1.0000
  H   H118      1.0  0.16698  0.71277  0.42800  1.0000
  H   H119      1.0  0.08755  0.68154  0.40663  1.0000
  H   H120      1.0  0.11951  0.63550  0.24722  1.0000
  C   C223      1.0  0.18307  0.45325  0.32689  1.0000
  C   C224      1.0  0.21643  0.46557  0.37861  1.0000
  C   C225      1.0  0.19896  0.46587  0.38120  1.0000
  H   H121      1.0  0.22773  0.47520  0.41746  1.0000
  H   H122      1.0  0.19798  0.47548  0.42306  1.0000
  C   C226      1.0  0.26261  0.45128  0.39998  1.0000
  C   C227      1.0  0.24463  0.45056  0.39942  1.0000
  H   H123      1.0  0.26800  0.44967  0.45931  1.0000
  H   H124      1.0  0.23747  0.44846  0.45880  1.0000
  N   N43       1.0  0.16645  0.45355  0.32749  1.0000
  C   C228      1.0  0.56315  0.74442  0.32691  1.0000
  C   C229      1.0  0.55084  0.76547  0.37863  1.0000
  C   C230      1.0  0.55054  0.74770  0.38124  1.0000
  H   H125      1.0  0.54120  0.76713  0.41748  1.0000
  H   H126      1.0  0.54093  0.73711  0.42309  1.0000
  C   C231      1.0  0.56510  0.82593  0.39986  1.0000
  C   C232      1.0  0.56584  0.80868  0.39934  1.0000
  H   H127      1.0  0.56672  0.83294  0.45918  1.0000
  H   H128      1.0  0.56796  0.80364  0.45872  1.0000
  N   N44       1.0  0.56284  0.72750  0.32750  1.0000
  C   C233      1.0  0.27196  0.83332  0.32695  1.0000
  C   C234      1.0  0.25091  0.79996  0.37869  1.0000
  C   C235      1.0  0.26867  0.81743  0.38130  1.0000
  H   H129      1.0  0.24924  0.78866  0.41755  1.0000
  H   H130      1.0  0.27927  0.81842  0.42318  1.0000
  C   C236      1.0  0.19045  0.75377  0.39990  1.0000
  C   C237      1.0  0.20770  0.77175  0.39938  1.0000
  H   H131      1.0  0.18343  0.74838  0.45922  1.0000
  H   H132      1.0  0.21275  0.77891  0.45876  1.0000
  N   N45       1.0  0.28888  0.84994  0.32754  1.0000
  C   C238      1.0  0.82905  0.56741  0.32696  1.0000
  C   C239      1.0  0.79570  0.55512  0.37875  1.0000
  C   C240      1.0  0.81317  0.55482  0.38136  1.0000
  H   H133      1.0  0.78440  0.54549  0.41762  1.0000
  H   H134      1.0  0.81415  0.54522  0.42326  1.0000
  C   C241      1.0  0.74949  0.56937  0.39984  1.0000
  C   C242      1.0  0.76749  0.57013  0.39934  1.0000
  H   H135      1.0  0.74411  0.57100  0.45915  1.0000
  H   H136      1.0  0.77465  0.57226  0.45872  1.0000
  N   N46       1.0  0.84567  0.56710  0.32754  1.0000
  C   C243      1.0  0.44897  0.27623  0.32697  1.0000
  C   C244      1.0  0.46126  0.25517  0.37873  1.0000
  C   C245      1.0  0.46156  0.27294  0.38134  1.0000
  H   H137      1.0  0.47089  0.25350  0.41760  1.0000
  H   H138      1.0  0.47117  0.28353  0.42324  1.0000
  C   C246      1.0  0.44701  0.19472  0.39985  1.0000
  C   C247      1.0  0.44626  0.21196  0.39936  1.0000
  H   H139      1.0  0.44539  0.18771  0.45916  1.0000
  H   H140      1.0  0.44414  0.21700  0.45874  1.0000
  N   N47       1.0  0.44928  0.29316  0.32756  1.0000
  C   C248      1.0  0.74015  0.18733  0.32696  1.0000
  C   C249      1.0  0.76121  0.22068  0.37871  1.0000
  C   C250      1.0  0.74344  0.20322  0.38133  1.0000
  H   H141      1.0  0.76288  0.23198  0.41760  1.0000
  H   H142      1.0  0.73285  0.20223  0.42324  1.0000
  C   C251      1.0  0.82167  0.26688  0.39984  1.0000
  C   C252      1.0  0.80442  0.24889  0.39934  1.0000
  H   H143      1.0  0.82868  0.27227  0.45915  1.0000
  H   H144      1.0  0.79938  0.24173  0.45872  1.0000
  N   N48       1.0  0.72322  0.17071  0.32754  1.0000
  C   C253      1.0  0.12549  0.53569  0.41585  1.0000
  C   C254      1.0  0.12605  0.55373  0.41477  1.0000
  C   C255      1.0  0.13962  0.56932  0.36182  1.0000
  C   C256      1.0  0.13957  0.58716  0.35957  1.0000
  C   C257      1.0  0.14204  0.59822  0.43796  1.0000
  C   C258      1.0  0.14101  0.61543  0.43188  1.0000
  C   C259      1.0  0.13733  0.62173  0.35002  1.0000
  H   H145      1.0  0.14268  0.62329  0.48866  1.0000
  H   H146      1.0  0.11622  0.55532  0.45243  1.0000
  N   N49       1.0  0.14589  0.59215  0.52059  1.0000
  N   N50       1.0  0.11212  0.52014  0.46979  1.0000
  O   O49       1.0  0.13308  0.58905  0.57761  1.0000
  O   O50       1.0  0.09494  0.51501  0.44904  1.0000
  O   O51       1.0  0.16209  0.60451  0.55139  1.0000
  O   O52       1.0  0.11455  0.52461  0.55113  1.0000
  N   N51       1.0  0.13589  0.63766  0.35122  1.0000
  C   C260      1.0  0.48068  0.60440  0.41583  1.0000
  C   C261      1.0  0.46264  0.58693  0.41476  1.0000
  C   C262      1.0  0.44705  0.58490  0.36177  1.0000
  C   C263      1.0  0.42921  0.56701  0.35951  1.0000
  C   C264      1.0  0.41815  0.55842  0.43790  1.0000
  C   C265      1.0  0.40093  0.54018  0.43181  1.0000
  C   C266      1.0  0.39465  0.53020  0.34996  1.0000
  H   H147      1.0  0.39308  0.53399  0.48860  1.0000
  H   H148      1.0  0.46105  0.57550  0.45237  1.0000
  N   N52       1.0  0.42422  0.56833  0.52054  1.0000
  N   N53       1.0  0.49623  0.60658  0.46976  1.0000
  O   O53       1.0  0.42732  0.55862  0.57754  1.0000
  O   O54       1.0  0.50136  0.59453  0.44898  1.0000
  O   O55       1.0  0.41187  0.57218  0.55135  1.0000
  O   O56       1.0  0.49176  0.60453  0.55111  1.0000
  N   N54       1.0  0.37871  0.51283  0.35116  1.0000
  C   C267      1.0  0.41198  0.89088  0.41582  1.0000
  C   C268      1.0  0.42945  0.89032  0.41474  1.0000
  C   C269      1.0  0.43149  0.87676  0.36178  1.0000
  C   C270      1.0  0.44937  0.87681  0.35953  1.0000
  C   C271      1.0  0.45797  0.87434  0.43791  1.0000
  C   C272      1.0  0.47621  0.87536  0.43183  1.0000
  C   C273      1.0  0.48618  0.87905  0.34996  1.0000
  H   H149      1.0  0.48239  0.87370  0.48861  1.0000
  H   H150      1.0  0.44089  0.90016  0.45236  1.0000
  N   N55       1.0  0.44805  0.87050  0.52055  1.0000
  N   N56       1.0  0.40980  0.90425  0.46975  1.0000
  O   O57       1.0  0.45776  0.88331  0.57755  1.0000
  O   O58       1.0  0.42185  0.92143  0.44896  1.0000
  O   O59       1.0  0.44421  0.85429  0.55136  1.0000
  O   O60       1.0  0.41185  0.90183  0.55109  1.0000
  N   N57       1.0  0.50355  0.88048  0.35116  1.0000
  C   C274      1.0  0.88663  0.48496  0.41583  1.0000
  C   C275      1.0  0.88606  0.46692  0.41474  1.0000
  C   C276      1.0  0.87250  0.45133  0.36176  1.0000
  C   C277      1.0  0.87254  0.43350  0.35951  1.0000
  C   C278      1.0  0.87007  0.42243  0.43790  1.0000
  C   C279      1.0  0.87110  0.40522  0.43183  1.0000
  C   C280      1.0  0.87479  0.39893  0.34996  1.0000
  H   H151      1.0  0.86943  0.39736  0.48860  1.0000
  H   H152      1.0  0.89590  0.46533  0.45239  1.0000
  N   N58       1.0  0.86622  0.42850  0.52053  1.0000
  N   N59       1.0  0.89999  0.50051  0.46980  1.0000
  O   O61       1.0  0.87903  0.43160  0.57756  1.0000
  O   O62       1.0  0.91717  0.50564  0.44905  1.0000
  O   O63       1.0  0.85001  0.41614  0.55131  1.0000
  O   O64       1.0  0.89756  0.49603  0.55114  1.0000
  N   N60       1.0  0.87622  0.38299  0.35117  1.0000
  C   C281      1.0  0.53141  0.41627  0.41583  1.0000
  C   C282      1.0  0.54944  0.43375  0.41471  1.0000
  C   C283      1.0  0.56504  0.43578  0.36174  1.0000
  C   C284      1.0  0.58287  0.45367  0.35942  1.0000
  C   C285      1.0  0.59394  0.46228  0.43776  1.0000
  C   C286      1.0  0.61116  0.48051  0.43159  1.0000
  C   C287      1.0  0.61745  0.49046  0.34967  1.0000
  H   H153      1.0  0.61903  0.48670  0.48833  1.0000
  H   H154      1.0  0.55104  0.44518  0.45232  1.0000
  N   N61       1.0  0.58788  0.45238  0.52045  1.0000
  N   N62       1.0  0.51586  0.41409  0.46977  1.0000
  O   O65       1.0  0.58479  0.46210  0.57741  1.0000
  O   O66       1.0  0.51073  0.42613  0.44896  1.0000
  O   O67       1.0  0.60024  0.44854  0.55127  1.0000
  O   O68       1.0  0.52034  0.41615  0.55111  1.0000
  N   N63       1.0  0.63341  0.50782  0.35073  1.0000
  C   C288      1.0  0.60011  0.12973  0.41581  1.0000
  C   C289      1.0  0.58263  0.13029  0.41472  1.0000
  C   C290      1.0  0.58059  0.14384  0.36173  1.0000
  C   C291      1.0  0.56270  0.14378  0.35943  1.0000
  C   C292      1.0  0.55409  0.14625  0.43778  1.0000
  C   C293      1.0  0.53587  0.14524  0.43163  1.0000
  C   C294      1.0  0.52590  0.14156  0.34974  1.0000
  H   H155      1.0  0.52967  0.14691  0.48838  1.0000
  H   H156      1.0  0.57120  0.12044  0.45231  1.0000
  N   N64       1.0  0.56400  0.15009  0.52045  1.0000
  N   N65       1.0  0.60230  0.11637  0.46972  1.0000
  O   O69       1.0  0.55428  0.13728  0.57745  1.0000
  O   O70       1.0  0.59026  0.09919  0.44890  1.0000
  O   O71       1.0  0.56785  0.16630  0.55124  1.0000
  O   O72       1.0  0.60024  0.11878  0.55106  1.0000
  N   N66       1.0  0.50855  0.14017  0.35081  1.0000
  C   C295      1.0  0.05801  0.41529  0.30327  1.0000
  C   C296      1.0  0.02897  0.38497  0.34558  1.0000
  C   C297      1.0  0.04920  0.39736  0.34885  1.0000
  H   H157      1.0  0.02292  0.37223  0.38050  1.0000
  H   H158      1.0  0.05735  0.39347  0.38689  1.0000
  C   C298      1.0  0.96637  0.36632  0.38337  1.0000
  C   C299      1.0  0.98665  0.37483  0.37993  1.0000
  H   H159      1.0  0.95986  0.36504  0.44385  1.0000
  H   H160      1.0  0.99427  0.37942  0.43844  1.0000
  N   N67       1.0  0.07666  0.42836  0.31050  1.0000
  C   C300      1.0  0.60105  0.65727  0.30352  1.0000
  C   C301      1.0  0.63140  0.65858  0.34564  1.0000
  C   C302      1.0  0.61900  0.66641  0.34894  1.0000
  H   H161      1.0  0.64415  0.66529  0.38047  1.0000
  H   H162      1.0  0.62291  0.67847  0.38692  1.0000
  C   C303      1.0  0.64999  0.61458  0.38341  1.0000
  C   C304      1.0  0.64154  0.62640  0.38002  1.0000
  H   H163      1.0  0.65126  0.60935  0.44387  1.0000
  H   H164      1.0  0.63691  0.62940  0.43851  1.0000
  N   N68       1.0  0.58800  0.66287  0.31067  1.0000
  C   C305      1.0  0.35911  0.95838  0.30351  1.0000
  C   C306      1.0  0.35780  0.98742  0.34567  1.0000
  C   C307      1.0  0.34997  0.96719  0.34895  1.0000
  H   H165      1.0  0.35110  0.99346  0.38054  1.0000
  H   H166      1.0  0.33793  0.95904  0.38703  1.0000
  C   C308      1.0  0.40175  0.05002  0.38334  1.0000
  C   C309      1.0  0.39000  0.02974  0.37992  1.0000
  H   H167      1.0  0.40702  0.05652  0.44376  1.0000
  H   H168      1.0  0.38699  0.02212  0.43844  1.0000
  N   N69       1.0  0.35351  0.93972  0.31067  1.0000
  C   C310      1.0  0.95410  0.60537  0.30325  1.0000
  C   C311      1.0  0.98315  0.63568  0.34559  1.0000
  C   C312      1.0  0.96291  0.62329  0.34883  1.0000
  H   H169      1.0  0.98919  0.64841  0.38056  1.0000
  H   H170      1.0  0.95477  0.62718  0.38699  1.0000
  C   C313      1.0  0.04573  0.65432  0.38328  1.0000
  C   C314      1.0  0.02546  0.64585  0.37989  1.0000
  H   H171      1.0  0.05224  0.65557  0.44370  1.0000
  H   H172      1.0  0.01784  0.64119  0.43838  1.0000
  N   N70       1.0  0.93545  0.59229  0.31051  1.0000
  C   C315      1.0  0.41103  0.36334  0.30329  1.0000
  C   C316      1.0  0.38071  0.36207  0.34561  1.0000
  C   C317      1.0  0.39310  0.35423  0.34889  1.0000
  H   H173      1.0  0.36797  0.35538  0.38052  1.0000
  H   H174      1.0  0.38920  0.34219  0.38695  1.0000
  C   C318      1.0  0.36207  0.40602  0.38337  1.0000
  C   C319      1.0  0.37058  0.39426  0.37993  1.0000
  H   H175      1.0  0.36078  0.41124  0.44384  1.0000
  H   H176      1.0  0.37516  0.39122  0.43844  1.0000
  N   N71       1.0  0.42410  0.35776  0.31054  1.0000
  C   C320      1.0  0.65300  0.06227  0.30355  1.0000
  C   C321      1.0  0.65433  0.03324  0.34563  1.0000
  C   C322      1.0  0.66215  0.05347  0.34895  1.0000
  H   H177      1.0  0.66104  0.02720  0.38044  1.0000
  H   H178      1.0  0.67421  0.06162  0.38692  1.0000
  C   C323      1.0  0.61035  0.97064  0.38333  1.0000
  C   C324      1.0  0.62216  0.99091  0.37996  1.0000
  H   H179      1.0  0.60512  0.96413  0.44378  1.0000
  H   H180      1.0  0.62515  0.99853  0.43847  1.0000
  N   N72       1.0  0.65860  0.08093  0.31070  1.0000
