data_image0
_chemical_formula_structural       C8H3NO2C8H3NO2C2HC2HC2H4C2HC2HC2H4C2HC2HC2H4C2HC2HC2H4C8H3NO2C8H3NO2C8H3NO2C8H3NO2C2HC2HC2H4C2HC2HC2H4C2HC2HC2H4C2HC2HC2H4C8H3NO2C8H3NO2C8H3NO2C8H3NO2C6H3C6H3C6H3C6H3C6H3C6H3C6H3C6H3C6H3C6H3C6H3C6H3C2HC2HC2H4C2HC2HC2H4C8H3NO2C8H3NO2C8H3NO2C8H3NO2C2HC2HC2H4C2HC2HC2H4C2HC2HC2H4C2HC2HC2H4C8H3NO2C8H3NO2C8H3NO2C8H3NO2C2HC2HC2H4C2HC2HC2H4C2HC2HC2H4C2HC2HC2H4
_chemical_formula_sum              "C324 H198 N18 O36"
_cell_length_a       51.9228
_cell_length_b       51.7643
_cell_length_c       14.9186
_cell_angle_alpha    90
_cell_angle_beta     90
_cell_angle_gamma    90.1783

_space_group_name_H-M_alt    "P 1"
_space_group_IT_number       1

loop_
  _space_group_symop_operation_xyz
  'x, y, z'

loop_
  _atom_site_type_symbol
  _atom_site_label
  _atom_site_symmetry_multiplicity
  _atom_site_fract_x
  _atom_site_fract_y
  _atom_site_fract_z
  _atom_site_occupancy
  C   C1        1.0  0.95152  0.55100  0.33079  1.0000
  C   C2        1.0  0.95584  0.53718  0.25092  1.0000
  C   C3        1.0  0.97528  0.51806  0.24446  1.0000
  C   C4        1.0  0.99023  0.51138  0.32144  1.0000
  C   C5        1.0  0.01025  0.49179  0.32193  1.0000
  C   C6        1.0  0.00923  0.46916  0.26844  1.0000
  C   C7        1.0  0.02862  0.45025  0.27198  1.0000
  C   C8        1.0  0.04985  0.45267  0.33068  1.0000
  H   H1        1.0  0.99375  0.46544  0.22841  1.0000
  H   H2        1.0  0.02703  0.43455  0.23061  1.0000
  H   H3        1.0  0.94534  0.54176  0.19505  1.0000
  N   N1        1.0  0.98086  0.50733  0.15931  1.0000
  O   O1        1.0  0.96165  0.49605  0.12580  1.0000
  O   O2        1.0  0.98876  0.52414  0.10496  1.0000
  C   C9        1.0  0.45185  0.95094  0.33080  1.0000
  C   C10       1.0  0.46570  0.95527  0.25100  1.0000
  C   C11       1.0  0.48496  0.97468  0.24477  1.0000
  C   C12       1.0  0.49175  0.98960  0.32189  1.0000
  C   C13       1.0  0.51145  0.00963  0.32256  1.0000
  C   C14       1.0  0.53402  0.00859  0.26916  1.0000
  C   C15       1.0  0.55299  0.02805  0.27266  1.0000
  C   C16       1.0  0.55069  0.04936  0.33135  1.0000
  H   H4        1.0  0.53760  0.99309  0.22900  1.0000
  H   H5        1.0  0.56861  0.02648  0.23122  1.0000
  H   H6        1.0  0.46106  0.94476  0.19507  1.0000
  N   N2        1.0  0.49577  0.98028  0.15971  1.0000
  O   O3        1.0  0.50683  0.96097  0.12617  1.0000
  O   O4        1.0  0.47911  0.98829  0.10531  1.0000
  C   C17       1.0  0.06059  0.32074  0.27060  1.0000
  C   C18       1.0  0.06623  0.34748  0.26710  1.0000
  H   H7        1.0  0.06381  0.35740  0.20830  1.0000
  C   C19       1.0  0.03565  0.24206  0.28135  1.0000
  C   C20       1.0  0.04146  0.26880  0.28430  1.0000
  H   H8        1.0  0.02300  0.23535  0.23408  1.0000
  C   C21       1.0  0.03010  0.28666  0.21690  1.0000
  C   C22       1.0  0.05003  0.30759  0.18956  1.0000
  H   H9        1.0  0.01320  0.29590  0.24641  1.0000
  H   H10       1.0  0.02388  0.27634  0.15664  1.0000
  H   H11       1.0  0.04068  0.32126  0.14421  1.0000
  H   H12       1.0  0.06593  0.29856  0.15326  1.0000
  C   C23       1.0  0.94159  0.68292  0.27415  1.0000
  C   C24       1.0  0.93586  0.65620  0.27064  1.0000
  H   H13       1.0  0.93788  0.64636  0.21150  1.0000
  C   C25       1.0  0.96685  0.76150  0.28400  1.0000
  C   C26       1.0  0.96099  0.73476  0.28723  1.0000
  H   H14       1.0  0.97926  0.76820  0.23597  1.0000
  C   C27       1.0  0.97193  0.71692  0.21892  1.0000
  C   C28       1.0  0.95175  0.69613  0.19259  1.0000
  H   H15       1.0  0.98893  0.70756  0.24726  1.0000
  H   H16       1.0  0.97789  0.72727  0.15841  1.0000
  H   H17       1.0  0.96077  0.68248  0.14637  1.0000
  H   H18       1.0  0.93568  0.70529  0.15755  1.0000
  C   C29       1.0  0.68221  0.06056  0.27094  1.0000
  C   C30       1.0  0.65558  0.06618  0.26726  1.0000
  H   H19       1.0  0.64569  0.06369  0.20846  1.0000
  C   C31       1.0  0.76055  0.03566  0.28218  1.0000
  C   C32       1.0  0.73390  0.04143  0.28504  1.0000
  H   H20       1.0  0.76719  0.02296  0.23500  1.0000
  C   C33       1.0  0.71606  0.02997  0.21765  1.0000
  C   C34       1.0  0.69530  0.04991  0.19007  1.0000
  H   H21       1.0  0.70676  0.01303  0.24726  1.0000
  H   H22       1.0  0.72634  0.02371  0.15749  1.0000
  H   H23       1.0  0.68164  0.04048  0.14476  1.0000
  H   H24       1.0  0.70439  0.06585  0.15363  1.0000
  C   C35       1.0  0.32021  0.94117  0.27428  1.0000
  C   C36       1.0  0.34675  0.93517  0.27048  1.0000
  H   H25       1.0  0.35648  0.93686  0.21103  1.0000
  C   C37       1.0  0.24222  0.96709  0.28428  1.0000
  C   C38       1.0  0.26882  0.96110  0.28741  1.0000
  H   H26       1.0  0.23560  0.97937  0.23571  1.0000
  C   C39       1.0  0.28663  0.97162  0.21816  1.0000
  C   C40       1.0  0.30703  0.95110  0.19247  1.0000
  H   H27       1.0  0.29626  0.98872  0.24541  1.0000
  H   H28       1.0  0.27630  0.97743  0.15756  1.0000
  H   H29       1.0  0.32068  0.95983  0.14548  1.0000
  H   H30       1.0  0.29761  0.93491  0.15849  1.0000
  C   C41       1.0  0.42615  0.85921  0.33101  1.0000
  C   C42       1.0  0.42552  0.84587  0.24884  1.0000
  C   C43       1.0  0.43162  0.81924  0.24317  1.0000
  C   C44       1.0  0.43765  0.80505  0.32256  1.0000
  C   C45       1.0  0.44372  0.77769  0.32373  1.0000
  C   C46       1.0  0.43212  0.75957  0.26486  1.0000
  C   C47       1.0  0.43791  0.73307  0.26899  1.0000
  C   C48       1.0  0.45527  0.72330  0.33344  1.0000
  H   H31       1.0  0.41846  0.76518  0.21989  1.0000
  H   H32       1.0  0.42934  0.72092  0.22375  1.0000
  H   H33       1.0  0.42106  0.85578  0.19148  1.0000
  N   N3        1.0  0.43345  0.80758  0.15748  1.0000
  O   O5        1.0  0.41258  0.80879  0.11491  1.0000
  O   O6        1.0  0.45094  0.81767  0.11075  1.0000
  C   C49       1.0  0.57526  0.14190  0.33583  1.0000
  C   C50       1.0  0.57696  0.15550  0.25433  1.0000
  C   C51       1.0  0.57097  0.18215  0.24863  1.0000
  C   C52       1.0  0.56413  0.19615  0.32759  1.0000
  C   C53       1.0  0.55834  0.22357  0.32884  1.0000
  C   C54       1.0  0.57066  0.24170  0.27179  1.0000
  C   C55       1.0  0.56505  0.26824  0.27570  1.0000
  C   C56       1.0  0.54714  0.27807  0.33820  1.0000
  H   H34       1.0  0.58475  0.23606  0.22845  1.0000
  H   H35       1.0  0.57411  0.28036  0.23152  1.0000
  H   H36       1.0  0.58209  0.14576  0.19732  1.0000
  N   N4        1.0  0.57013  0.19401  0.16305  1.0000
  O   O7        1.0  0.59145  0.19281  0.12325  1.0000
  O   O8        1.0  0.55313  0.18408  0.11378  1.0000
  C   C57       1.0  0.85998  0.57609  0.33120  1.0000
  C   C58       1.0  0.84660  0.57707  0.24923  1.0000
  C   C59       1.0  0.81999  0.57103  0.24361  1.0000
  C   C60       1.0  0.80586  0.56475  0.32289  1.0000
  C   C61       1.0  0.77851  0.55882  0.32419  1.0000
  C   C62       1.0  0.76053  0.57068  0.26585  1.0000
  C   C63       1.0  0.73404  0.56502  0.27012  1.0000
  C   C64       1.0  0.72414  0.54749  0.33409  1.0000
  H   H37       1.0  0.76623  0.58451  0.22133  1.0000
  H   H38       1.0  0.72199  0.57378  0.22519  1.0000
  H   H39       1.0  0.85645  0.58175  0.19196  1.0000
  N   N5        1.0  0.80828  0.56954  0.15794  1.0000
  O   O9        1.0  0.80964  0.59062  0.11627  1.0000
  O   O10       1.0  0.81814  0.55213  0.11038  1.0000
  C   C65       1.0  0.14203  0.42800  0.33574  1.0000
  C   C66       1.0  0.15555  0.42635  0.25417  1.0000
  C   C67       1.0  0.18224  0.43196  0.24868  1.0000
  C   C68       1.0  0.19634  0.43838  0.32787  1.0000
  C   C69       1.0  0.22380  0.44374  0.32936  1.0000
  C   C70       1.0  0.24162  0.43125  0.27197  1.0000
  C   C71       1.0  0.26818  0.43654  0.27591  1.0000
  C   C72       1.0  0.27834  0.45424  0.33881  1.0000
  H   H40       1.0  0.23570  0.41734  0.22813  1.0000
  H   H41       1.0  0.28008  0.42742  0.23137  1.0000
  H   H42       1.0  0.14575  0.42144  0.19702  1.0000
  N   N6        1.0  0.19410  0.43282  0.16315  1.0000
  O   O11       1.0  0.19245  0.41156  0.12273  1.0000
  O   O12       1.0  0.18458  0.45014  0.11435  1.0000
  C   C73       1.0  0.13283  0.05692  0.27358  1.0000
  C   C74       1.0  0.14553  0.03287  0.26794  1.0000
  H   H43       1.0  0.14822  0.02437  0.20666  1.0000
  C   C75       1.0  0.09201  0.12793  0.28008  1.0000
  C   C76       1.0  0.10942  0.10693  0.28333  1.0000
  H   H44       1.0  0.09090  0.13900  0.22333  1.0000
  C   C77       1.0  0.12511  0.10014  0.20330  1.0000
  C   C78       1.0  0.12512  0.07044  0.18949  1.0000
  H   H45       1.0  0.14484  0.10687  0.21430  1.0000
  H   H46       1.0  0.11790  0.10939  0.14238  1.0000
  H   H47       1.0  0.13835  0.06593  0.13464  1.0000
  H   H48       1.0  0.10587  0.06388  0.17010  1.0000
  C   C79       1.0  0.87023  0.94674  0.27335  1.0000
  C   C80       1.0  0.85754  0.97078  0.26724  1.0000
  H   H49       1.0  0.85491  0.97922  0.20581  1.0000
  C   C81       1.0  0.91082  0.87561  0.28123  1.0000
  C   C82       1.0  0.89348  0.89667  0.28400  1.0000
  H   H50       1.0  0.91196  0.86449  0.22459  1.0000
  C   C83       1.0  0.87791  0.90344  0.20366  1.0000
  C   C84       1.0  0.87802  0.93313  0.18953  1.0000
  H   H51       1.0  0.85814  0.89679  0.21442  1.0000
  H   H52       1.0  0.88516  0.89411  0.14295  1.0000
  H   H53       1.0  0.86489  0.93764  0.13438  1.0000
  H   H54       1.0  0.89733  0.93960  0.17045  1.0000
  C   C85       1.0  0.94628  0.13237  0.27238  1.0000
  C   C86       1.0  0.97052  0.14472  0.26637  1.0000
  H   H55       1.0  0.97911  0.14704  0.20507  1.0000
  C   C87       1.0  0.87478  0.09235  0.27976  1.0000
  C   C88       1.0  0.89593  0.10968  0.28260  1.0000
  H   H56       1.0  0.86387  0.09102  0.22274  1.0000
  C   C89       1.0  0.90313  0.12493  0.20178  1.0000
  C   C90       1.0  0.93276  0.12443  0.18851  1.0000
  H   H57       1.0  0.89683  0.14487  0.21154  1.0000
  H   H58       1.0  0.89384  0.11756  0.14112  1.0000
  H   H59       1.0  0.93760  0.13736  0.13298  1.0000
  H   H60       1.0  0.93891  0.10494  0.17037  1.0000
  C   C91       1.0  0.05641  0.87137  0.27418  1.0000
  C   C92       1.0  0.03223  0.85890  0.26813  1.0000
  H   H61       1.0  0.02369  0.85648  0.20678  1.0000
  C   C93       1.0  0.12790  0.91147  0.28189  1.0000
  C   C94       1.0  0.10670  0.89419  0.28459  1.0000
  H   H62       1.0  0.13890  0.91269  0.22508  1.0000
  C   C95       1.0  0.09959  0.87885  0.20388  1.0000
  C   C96       1.0  0.06997  0.87928  0.19035  1.0000
  H   H63       1.0  0.10592  0.85894  0.21389  1.0000
  H   H64       1.0  0.10890  0.88620  0.14322  1.0000
  H   H65       1.0  0.06519  0.86629  0.13489  1.0000
  H   H66       1.0  0.06378  0.89875  0.17198  1.0000
  C   C97       1.0  0.34942  0.51808  0.33347  1.0000
  C   C98       1.0  0.35316  0.52980  0.24935  1.0000
  C   C99       1.0  0.36624  0.55374  0.24094  1.0000
  C   C100      1.0  0.37647  0.56609  0.31879  1.0000
  C   C101      1.0  0.39239  0.58909  0.31645  1.0000
  C   C102      1.0  0.41036  0.59377  0.24672  1.0000
  C   C103      1.0  0.42771  0.61461  0.25008  1.0000
  C   C104      1.0  0.42806  0.63154  0.32417  1.0000
  H   H67       1.0  0.41245  0.58105  0.19507  1.0000
  H   H68       1.0  0.44076  0.61680  0.19914  1.0000
  H   H69       1.0  0.34680  0.52057  0.19275  1.0000
  N   N7        1.0  0.36790  0.56565  0.15557  1.0000
  O   O13       1.0  0.37919  0.55160  0.09919  1.0000
  O   O14       1.0  0.34601  0.57126  0.12546  1.0000
  C   C105      1.0  0.65336  0.48321  0.33257  1.0000
  C   C106      1.0  0.64969  0.47126  0.24878  1.0000
  C   C107      1.0  0.63658  0.44731  0.24101  1.0000
  C   C108      1.0  0.62629  0.43516  0.31914  1.0000
  C   C109      1.0  0.61033  0.41217  0.31739  1.0000
  C   C110      1.0  0.59242  0.40731  0.24762  1.0000
  C   C111      1.0  0.57500  0.38653  0.25161  1.0000
  C   C112      1.0  0.57454  0.36982  0.32629  1.0000
  H   H70       1.0  0.59034  0.41994  0.19569  1.0000
  H   H71       1.0  0.56194  0.38426  0.20074  1.0000
  H   H72       1.0  0.65605  0.48036  0.19194  1.0000
  N   N8        1.0  0.63494  0.43520  0.15598  1.0000
  O   O15       1.0  0.62368  0.44913  0.09915  1.0000
  O   O16       1.0  0.65683  0.42950  0.12613  1.0000
  C   C113      1.0  0.51948  0.65283  0.33229  1.0000
  C   C114      1.0  0.53155  0.64962  0.24857  1.0000
  C   C115      1.0  0.55545  0.63669  0.24056  1.0000
  C   C116      1.0  0.56747  0.62613  0.31838  1.0000
  C   C117      1.0  0.59047  0.61039  0.31630  1.0000
  C   C118      1.0  0.59552  0.59279  0.24568  1.0000
  C   C119      1.0  0.61630  0.57551  0.24918  1.0000
  C   C120      1.0  0.63283  0.57491  0.32418  1.0000
  H   H73       1.0  0.58302  0.59078  0.19341  1.0000
  H   H74       1.0  0.61868  0.56263  0.19777  1.0000
  H   H75       1.0  0.52255  0.65619  0.19190  1.0000
  N   N9        1.0  0.56766  0.63551  0.15567  1.0000
  O   O17       1.0  0.55388  0.62432  0.09805  1.0000
  O   O18       1.0  0.57333  0.65763  0.12701  1.0000
  C   C121      1.0  0.48306  0.34866  0.33405  1.0000
  C   C122      1.0  0.47110  0.35196  0.25019  1.0000
  C   C123      1.0  0.44713  0.36475  0.24205  1.0000
  C   C124      1.0  0.43494  0.37511  0.31987  1.0000
  C   C125      1.0  0.41190  0.39079  0.31772  1.0000
  C   C126      1.0  0.40692  0.40851  0.24739  1.0000
  C   C127      1.0  0.38611  0.42575  0.25091  1.0000
  C   C128      1.0  0.36955  0.42629  0.32582  1.0000
  H   H76       1.0  0.41943  0.41056  0.19519  1.0000
  H   H77       1.0  0.38378  0.43870  0.19965  1.0000
  H   H78       1.0  0.48020  0.34550  0.19356  1.0000
  N   N10       1.0  0.43502  0.36598  0.15701  1.0000
  O   O19       1.0  0.44881  0.37731  0.09975  1.0000
  O   O20       1.0  0.42951  0.34386  0.12792  1.0000
  C   C129      1.0  0.08229  0.38728  0.33903  1.0000
  C   C130      1.0  0.10843  0.39482  0.34088  1.0000
  C   C131      1.0  0.11554  0.42116  0.33944  1.0000
  C   C132      1.0  0.09601  0.44013  0.33702  1.0000
  C   C133      1.0  0.06953  0.43326  0.33457  1.0000
  C   C134      1.0  0.06312  0.40658  0.33515  1.0000
  H   H79       1.0  0.10123  0.45921  0.33403  1.0000
  H   H80       1.0  0.04416  0.40105  0.33560  1.0000
  H   H81       1.0  0.12247  0.38094  0.34256  1.0000
  C   C135      1.0  0.92008  0.61637  0.34255  1.0000
  C   C136      1.0  0.89383  0.60908  0.34052  1.0000
  C   C137      1.0  0.88648  0.58283  0.33525  1.0000
  C   C138      1.0  0.90583  0.56369  0.33186  1.0000
  C   C139      1.0  0.93225  0.57047  0.33482  1.0000
  C   C140      1.0  0.93913  0.59691  0.34005  1.0000
  H   H82       1.0  0.90061  0.54462  0.32757  1.0000
  H   H83       1.0  0.95820  0.60206  0.34134  1.0000
  H   H84       1.0  0.87990  0.62308  0.34213  1.0000
  C   C141      1.0  0.61592  0.08223  0.33895  1.0000
  C   C142      1.0  0.60842  0.10841  0.34075  1.0000
  C   C143      1.0  0.58215  0.11539  0.33954  1.0000
  C   C144      1.0  0.56324  0.09569  0.33744  1.0000
  C   C145      1.0  0.57007  0.06917  0.33497  1.0000
  C   C146      1.0  0.59666  0.06289  0.33531  1.0000
  H   H85       1.0  0.54422  0.10082  0.33448  1.0000
  H   H86       1.0  0.60216  0.04390  0.33580  1.0000
  H   H87       1.0  0.62226  0.12258  0.34227  1.0000
  C   C147      1.0  0.38642  0.91954  0.34249  1.0000
  C   C148      1.0  0.39347  0.89319  0.34036  1.0000
  C   C149      1.0  0.41959  0.88579  0.33499  1.0000
  C   C150      1.0  0.43882  0.90516  0.33158  1.0000
  C   C151      1.0  0.43228  0.93166  0.33468  1.0000
  C   C152      1.0  0.40598  0.93861  0.34007  1.0000
  H   H88       1.0  0.45779  0.89989  0.32726  1.0000
  H   H89       1.0  0.40099  0.95775  0.34149  1.0000
  H   H90       1.0  0.37941  0.87925  0.34197  1.0000
  C   C153      1.0  0.05519  0.15166  0.34369  1.0000
  C   C154      1.0  0.02910  0.14393  0.34312  1.0000
  C   C155      1.0  0.00912  0.16227  0.33936  1.0000
  C   C156      1.0  0.01541  0.18883  0.33736  1.0000
  C   C157      1.0  0.04142  0.19730  0.33783  1.0000
  C   C158      1.0  0.06108  0.17832  0.34005  1.0000
  H   H91       1.0  0.00082  0.20210  0.33818  1.0000
  H   H92       1.0  0.08001  0.18394  0.34077  1.0000
  H   H93       1.0  0.02457  0.12464  0.34615  1.0000
  C   C159      1.0  0.94754  0.85188  0.34546  1.0000
  C   C160      1.0  0.97362  0.85964  0.34449  1.0000
  C   C161      1.0  0.99362  0.84131  0.34105  1.0000
  C   C162      1.0  0.98735  0.81474  0.33974  1.0000
  C   C163      1.0  0.96135  0.80625  0.34061  1.0000
  C   C164      1.0  0.94166  0.82521  0.34259  1.0000
  H   H94       1.0  0.00195  0.80148  0.34070  1.0000
  H   H95       1.0  0.92274  0.81956  0.34367  1.0000
  H   H96       1.0  0.97813  0.87893  0.34708  1.0000
  C   C165      1.0  0.85070  0.05573  0.34444  1.0000
  C   C166      1.0  0.85842  0.02962  0.34387  1.0000
  C   C167      1.0  0.84013  0.00946  0.34012  1.0000
  C   C168      1.0  0.81365  0.01561  0.33807  1.0000
  C   C169      1.0  0.80520  0.04165  0.33855  1.0000
  C   C170      1.0  0.82413  0.06149  0.34075  1.0000
  H   H97       1.0  0.80043  0.00088  0.33885  1.0000
  H   H98       1.0  0.81854  0.08045  0.34139  1.0000
  H   H99       1.0  0.87765  0.02521  0.34692  1.0000
  C   C171      1.0  0.15206  0.94802  0.34665  1.0000
  C   C172      1.0  0.14445  0.97416  0.34529  1.0000
  C   C173      1.0  0.16281  0.99425  0.34155  1.0000
  C   C174      1.0  0.18927  0.98800  0.34021  1.0000
  C   C175      1.0  0.19761  0.96192  0.34160  1.0000
  C   C176      1.0  0.17862  0.94215  0.34395  1.0000
  H   H100      1.0  0.20257  0.00266  0.34086  1.0000
  H   H101      1.0  0.18416  0.92318  0.34530  1.0000
  H   H102      1.0  0.12523  0.97864  0.34779  1.0000
  C   C177      1.0  0.44762  0.65069  0.33137  1.0000
  C   C178      1.0  0.47370  0.64311  0.33281  1.0000
  C   C179      1.0  0.49369  0.66158  0.33657  1.0000
  C   C180      1.0  0.48741  0.68810  0.33797  1.0000
  C   C181      1.0  0.46139  0.69638  0.33652  1.0000
  C   C182      1.0  0.44171  0.67732  0.33402  1.0000
  H   H103      1.0  0.50198  0.70149  0.33746  1.0000
  H   H104      1.0  0.42280  0.68286  0.33240  1.0000
  H   H105      1.0  0.47822  0.62385  0.33035  1.0000
  C   C183      1.0  0.55494  0.35072  0.33397  1.0000
  C   C184      1.0  0.52886  0.35834  0.33460  1.0000
  C   C185      1.0  0.50884  0.33992  0.33877  1.0000
  C   C186      1.0  0.51508  0.31339  0.34131  1.0000
  C   C187      1.0  0.54108  0.30504  0.34058  1.0000
  C   C188      1.0  0.56079  0.32409  0.33783  1.0000
  H   H106      1.0  0.50048  0.30004  0.34081  1.0000
  H   H107      1.0  0.57970  0.31853  0.33682  1.0000
  H   H108      1.0  0.52437  0.37760  0.33135  1.0000
  C   C189      1.0  0.65179  0.55529  0.33149  1.0000
  C   C190      1.0  0.64403  0.52914  0.33287  1.0000
  C   C191      1.0  0.66228  0.50906  0.33688  1.0000
  C   C192      1.0  0.68877  0.51533  0.33861  1.0000
  C   C193      1.0  0.69724  0.54141  0.33706  1.0000
  C   C194      1.0  0.67838  0.56118  0.33437  1.0000
  H   H109      1.0  0.70200  0.50069  0.33810  1.0000
  H   H110      1.0  0.68404  0.58014  0.33280  1.0000
  H   H111      1.0  0.62479  0.52464  0.33017  1.0000
  C   C195      1.0  0.35067  0.44599  0.33352  1.0000
  C   C196      1.0  0.35855  0.47211  0.33415  1.0000
  C   C197      1.0  0.34042  0.49228  0.33857  1.0000
  C   C198      1.0  0.31391  0.48615  0.34149  1.0000
  C   C199      1.0  0.30530  0.46012  0.34085  1.0000
  C   C200      1.0  0.32406  0.44025  0.33768  1.0000
  H   H112      1.0  0.30077  0.50088  0.34121  1.0000
  H   H113      1.0  0.31829  0.42131  0.33671  1.0000
  H   H114      1.0  0.37780  0.47652  0.33065  1.0000
  C   C201      1.0  0.98653  0.52630  0.40102  1.0000
  C   C202      1.0  0.96744  0.54572  0.40497  1.0000
  H   H115      1.0  0.96485  0.55594  0.46305  1.0000
  C   C203      1.0  0.05041  0.47452  0.38762  1.0000
  C   C204      1.0  0.03086  0.49356  0.38492  1.0000
  H   H116      1.0  0.06492  0.47629  0.43367  1.0000
  C   C205      1.0  0.03112  0.51525  0.45050  1.0000
  C   C206      1.0  0.00331  0.52173  0.48055  1.0000
  H   H117      1.0  0.03980  0.53217  0.41850  1.0000
  H   H118      1.0  0.04255  0.51058  0.50989  1.0000
  H   H119      1.0  0.00400  0.53858  0.52473  1.0000
  H   H120      1.0  0.99538  0.50555  0.51890  1.0000
  C   C207      1.0  0.47682  0.98590  0.40139  1.0000
  C   C208      1.0  0.45726  0.96683  0.40512  1.0000
  H   H121      1.0  0.44703  0.96423  0.46315  1.0000
  C   C209      1.0  0.52892  0.04989  0.38836  1.0000
  C   C210      1.0  0.50981  0.03028  0.38563  1.0000
  H   H122      1.0  0.52723  0.06446  0.43436  1.0000
  C   C211      1.0  0.48819  0.03056  0.45116  1.0000
  C   C212      1.0  0.48151  0.00266  0.48105  1.0000
  H   H123      1.0  0.47139  0.03931  0.41919  1.0000
  H   H124      1.0  0.49293  0.04199  0.51063  1.0000
  H   H125      1.0  0.46472  0.00336  0.52527  1.0000
  H   H126      1.0  0.49759  0.99466  0.51931  1.0000
  C   C213      1.0  0.07567  0.36066  0.34289  1.0000
  C   C214      1.0  0.07831  0.34686  0.42365  1.0000
  C   C215      1.0  0.07234  0.32017  0.42941  1.0000
  C   C216      1.0  0.06464  0.30630  0.35102  1.0000
  C   C217      1.0  0.05884  0.27886  0.34972  1.0000
  C   C218      1.0  0.07167  0.26069  0.40489  1.0000
  C   C219      1.0  0.06596  0.23414  0.40109  1.0000
  C   C220      1.0  0.04753  0.22430  0.34024  1.0000
  H   H127      1.0  0.08613  0.26631  0.44687  1.0000
  H   H128      1.0  0.07539  0.22201  0.44410  1.0000
  H   H129      1.0  0.08404  0.35650  0.48025  1.0000
  N   N11       1.0  0.07235  0.30815  0.51476  1.0000
  O   O21       1.0  0.09405  0.30938  0.55198  1.0000
  O   O22       1.0  0.05586  0.31789  0.56629  1.0000
  C   C221      1.0  0.92689  0.64293  0.34692  1.0000
  C   C222      1.0  0.92472  0.65663  0.42804  1.0000
  C   C223      1.0  0.93074  0.68332  0.43373  1.0000
  C   C224      1.0  0.93805  0.69727  0.35504  1.0000
  C   C225      1.0  0.94393  0.72471  0.35366  1.0000
  C   C226      1.0  0.93144  0.74288  0.40974  1.0000
  C   C227      1.0  0.93712  0.76944  0.40550  1.0000
  C   C228      1.0  0.95527  0.77926  0.34358  1.0000
  H   H130      1.0  0.91717  0.73727  0.45251  1.0000
  H   H131      1.0  0.92790  0.78160  0.44898  1.0000
  H   H132      1.0  0.91925  0.64693  0.48483  1.0000
  N   N12       1.0  0.93115  0.69529  0.51916  1.0000
  O   O23       1.0  0.90962  0.69406  0.55759  1.0000
  O   O24       1.0  0.94787  0.68549  0.56967  1.0000
  C   C229      1.0  0.64246  0.07572  0.34288  1.0000
  C   C230      1.0  0.65621  0.07847  0.42365  1.0000
  C   C231      1.0  0.68278  0.07249  0.42962  1.0000
  C   C232      1.0  0.69659  0.06468  0.35140  1.0000
  C   C233      1.0  0.72393  0.05889  0.35027  1.0000
  C   C234      1.0  0.74208  0.07179  0.40550  1.0000
  C   C235      1.0  0.76853  0.06613  0.40175  1.0000
  C   C236      1.0  0.77829  0.04765  0.34102  1.0000
  H   H133      1.0  0.73653  0.08633  0.44728  1.0000
  H   H134      1.0  0.78065  0.07565  0.44473  1.0000
  H   H135      1.0  0.64660  0.08422  0.48017  1.0000
  N   N13       1.0  0.69472  0.07256  0.51505  1.0000
  O   O25       1.0  0.69361  0.09436  0.55207  1.0000
  O   O26       1.0  0.68488  0.05606  0.56666  1.0000
  C   C237      1.0  0.36001  0.92646  0.34699  1.0000
  C   C238      1.0  0.34649  0.92480  0.42856  1.0000
  C   C239      1.0  0.31997  0.93107  0.43449  1.0000
  C   C240      1.0  0.30602  0.93814  0.35571  1.0000
  C   C241      1.0  0.27874  0.94423  0.35458  1.0000
  C   C242      1.0  0.26056  0.93205  0.41166  1.0000
  C   C243      1.0  0.23414  0.93787  0.40755  1.0000
  C   C244      1.0  0.22447  0.95582  0.34475  1.0000
  H   H136      1.0  0.26606  0.91792  0.45517  1.0000
  H   H137      1.0  0.22197  0.92887  0.45165  1.0000
  H   H138      1.0  0.35620  0.91955  0.48545  1.0000
  N   N14       1.0  0.30821  0.93200  0.52015  1.0000
  O   O27       1.0  0.30922  0.91060  0.55987  1.0000
  O   O28       1.0  0.31831  0.94894  0.56940  1.0000
  C   C245      1.0  0.43975  0.81908  0.40474  1.0000
  C   C246      1.0  0.43377  0.84571  0.40844  1.0000
  H   H139      1.0  0.43485  0.85535  0.46828  1.0000
  C   C247      1.0  0.46594  0.74097  0.39556  1.0000
  C   C248      1.0  0.45990  0.76763  0.39256  1.0000
  H   H140      1.0  0.47773  0.73423  0.44527  1.0000
  C   C249      1.0  0.46961  0.78535  0.46364  1.0000
  C   C250      1.0  0.44881  0.80567  0.48736  1.0000
  H   H141      1.0  0.48689  0.79514  0.43885  1.0000
  H   H142      1.0  0.47480  0.77484  0.52460  1.0000
  H   H143      1.0  0.45696  0.81926  0.53590  1.0000
  H   H144      1.0  0.43235  0.79608  0.51891  1.0000
  C   C251      1.0  0.56096  0.18189  0.40889  1.0000
  C   C252      1.0  0.56672  0.15520  0.41251  1.0000
  H   H145      1.0  0.56500  0.14541  0.47188  1.0000
  C   C253      1.0  0.53576  0.26038  0.39875  1.0000
  C   C254      1.0  0.54159  0.23366  0.39593  1.0000
  H   H146      1.0  0.52353  0.26712  0.44714  1.0000
  C   C255      1.0  0.53094  0.21588  0.46519  1.0000
  C   C256      1.0  0.55117  0.19517  0.49074  1.0000
  H   H147      1.0  0.51377  0.20644  0.43800  1.0000
  H   H148      1.0  0.52530  0.22631  0.52583  1.0000
  H   H149      1.0  0.54230  0.18153  0.53756  1.0000
  H   H150      1.0  0.56740  0.20441  0.52487  1.0000
  C   C257      1.0  0.81991  0.56233  0.40482  1.0000
  C   C258      1.0  0.84652  0.56823  0.40846  1.0000
  H   H151      1.0  0.85616  0.56698  0.46818  1.0000
  C   C259      1.0  0.74169  0.53655  0.39572  1.0000
  C   C260      1.0  0.76834  0.54246  0.39260  1.0000
  H   H152      1.0  0.73489  0.52461  0.44508  1.0000
  C   C261      1.0  0.78597  0.53241  0.46311  1.0000
  C   C262      1.0  0.80652  0.55307  0.48728  1.0000
  H   H153      1.0  0.79547  0.51509  0.43760  1.0000
  H   H154      1.0  0.77549  0.52711  0.52403  1.0000
  H   H155      1.0  0.82003  0.54465  0.53529  1.0000
  H   H156      1.0  0.79721  0.56954  0.51959  1.0000
  C   C263      1.0  0.18218  0.44154  0.40928  1.0000
  C   C264      1.0  0.15547  0.43611  0.41274  1.0000
  H   H157      1.0  0.14576  0.43775  0.47222  1.0000
  C   C265      1.0  0.26094  0.46571  0.39984  1.0000
  C   C266      1.0  0.23420  0.46022  0.39696  1.0000
  H   H158      1.0  0.26791  0.47782  0.44843  1.0000
  C   C267      1.0  0.21671  0.47097  0.46659  1.0000
  C   C268      1.0  0.19563  0.45093  0.49145  1.0000
  H   H159      1.0  0.20765  0.48841  0.44000  1.0000
  H   H160      1.0  0.22722  0.47629  0.52742  1.0000
  H   H161      1.0  0.18222  0.45990  0.53857  1.0000
  H   H162      1.0  0.20449  0.43441  0.52504  1.0000
  C   C269      1.0  0.15400  0.02007  0.34574  1.0000
  C   C270      1.0  0.15021  0.03200  0.42947  1.0000
  C   C271      1.0  0.13704  0.05583  0.43710  1.0000
  C   C272      1.0  0.12675  0.06787  0.35886  1.0000
  C   C273      1.0  0.11069  0.09068  0.36044  1.0000
  C   C274      1.0  0.09268  0.09532  0.42997  1.0000
  C   C275      1.0  0.07520  0.11594  0.42590  1.0000
  C   C276      1.0  0.07476  0.13266  0.35127  1.0000
  H   H163      1.0  0.09066  0.08272  0.48204  1.0000
  H   H164      1.0  0.06215  0.11812  0.47680  1.0000
  H   H165      1.0  0.15656  0.02296  0.48637  1.0000
  N   N15       1.0  0.13529  0.06793  0.52210  1.0000
  O   O29       1.0  0.12403  0.05389  0.57884  1.0000
  O   O30       1.0  0.15713  0.07384  0.55215  1.0000
  C   C277      1.0  0.84901  0.98367  0.34477  1.0000
  C   C278      1.0  0.85272  0.97184  0.42871  1.0000
  C   C279      1.0  0.86587  0.94802  0.43680  1.0000
  C   C280      1.0  0.87621  0.93587  0.35884  1.0000
  C   C281      1.0  0.89219  0.91300  0.36089  1.0000
  C   C282      1.0  0.91008  0.90835  0.43078  1.0000
  C   C283      1.0  0.92750  0.88768  0.42715  1.0000
  C   C284      1.0  0.92797  0.87089  0.35270  1.0000
  H   H166      1.0  0.91215  0.92105  0.48255  1.0000
  H   H167      1.0  0.94054  0.88554  0.47811  1.0000
  H   H168      1.0  0.84633  0.98096  0.48543  1.0000
  N   N16       1.0  0.86753  0.93601  0.52200  1.0000
  O   O31       1.0  0.87877  0.95010  0.57865  1.0000
  O   O32       1.0  0.84565  0.93017  0.55193  1.0000
  C   C285      1.0  0.98333  0.15343  0.34387  1.0000
  C   C286      1.0  0.97123  0.15031  0.42761  1.0000
  C   C287      1.0  0.94720  0.13746  0.43563  1.0000
  C   C288      1.0  0.93510  0.12691  0.35783  1.0000
  C   C289      1.0  0.91203  0.11116  0.35995  1.0000
  C   C290      1.0  0.90695  0.09353  0.43056  1.0000
  C   C291      1.0  0.88615  0.07615  0.42696  1.0000
  C   C292      1.0  0.86967  0.07545  0.35183  1.0000
  H   H169      1.0  0.91944  0.09157  0.48283  1.0000
  H   H170      1.0  0.88375  0.06324  0.47834  1.0000
  H   H171      1.0  0.98027  0.15690  0.48424  1.0000
  N   N17       1.0  0.93496  0.13636  0.52047  1.0000
  O   O33       1.0  0.94862  0.12520  0.57826  1.0000
  O   O34       1.0  0.92947  0.15852  0.54891  1.0000
  C   C293      1.0  0.01940  0.85020  0.34561  1.0000
  C   C294      1.0  0.03141  0.85351  0.42941  1.0000
  C   C295      1.0  0.05537  0.86647  0.43748  1.0000
  C   C296      1.0  0.06749  0.87698  0.35965  1.0000
  C   C297      1.0  0.09054  0.89279  0.36178  1.0000
  C   C298      1.0  0.09553  0.91051  0.43215  1.0000
  C   C299      1.0  0.11639  0.92782  0.42874  1.0000
  C   C300      1.0  0.13300  0.92838  0.35394  1.0000
  H   H172      1.0  0.08302  0.91249  0.48436  1.0000
  H   H173      1.0  0.11879  0.94074  0.48009  1.0000
  H   H174      1.0  0.02235  0.84695  0.48605  1.0000
  N   N18       1.0  0.06753  0.86774  0.52244  1.0000
  O   O35       1.0  0.05377  0.87894  0.57987  1.0000
  O   O36       1.0  0.07309  0.84564  0.55133  1.0000
  C   C301      1.0  0.37046  0.55530  0.40443  1.0000
  C   C302      1.0  0.35782  0.53116  0.41087  1.0000
  H   H175      1.0  0.35511  0.52282  0.47244  1.0000
  C   C303      1.0  0.41087  0.62677  0.39557  1.0000
  C   C304      1.0  0.39358  0.60556  0.39303  1.0000
  H   H176      1.0  0.41194  0.63798  0.45202  1.0000
  C   C305      1.0  0.37795  0.59879  0.47333  1.0000
  C   C306      1.0  0.37812  0.56913  0.48807  1.0000
  H   H177      1.0  0.35817  0.60525  0.46219  1.0000
  H   H178      1.0  0.38511  0.60828  0.53393  1.0000
  H   H179      1.0  0.36495  0.56460  0.54314  1.0000
  H   H180      1.0  0.39742  0.56286  0.50754  1.0000
  C   C307      1.0  0.63226  0.44616  0.40448  1.0000
  C   C308      1.0  0.64490  0.47033  0.41028  1.0000
  H   H181      1.0  0.64754  0.47884  0.47160  1.0000
  C   C309      1.0  0.59173  0.37473  0.39761  1.0000
  C   C310      1.0  0.60906  0.39590  0.39448  1.0000
  H   H182      1.0  0.59060  0.36368  0.45441  1.0000
  C   C311      1.0  0.62467  0.40285  0.47466  1.0000
  C   C312      1.0  0.62454  0.43256  0.48849  1.0000
  H   H183      1.0  0.64444  0.39634  0.46382  1.0000
  H   H184      1.0  0.61746  0.39352  0.53551  1.0000
  H   H185      1.0  0.63771  0.43720  0.54348  1.0000
  H   H186      1.0  0.60525  0.43891  0.50768  1.0000
  C   C313      1.0  0.55633  0.63162  0.40379  1.0000
  C   C314      1.0  0.53220  0.64405  0.40977  1.0000
  H   H187      1.0  0.52360  0.64636  0.47105  1.0000
  C   C315      1.0  0.62772  0.59175  0.39636  1.0000
  C   C316      1.0  0.60657  0.60895  0.39364  1.0000
  H   H188      1.0  0.63863  0.59046  0.45333  1.0000
  C   C317      1.0  0.59940  0.62415  0.47452  1.0000
  C   C318      1.0  0.56977  0.62362  0.48765  1.0000
  H   H189      1.0  0.60582  0.64410  0.46496  1.0000
  H   H190      1.0  0.60863  0.61675  0.53517  1.0000
  H   H191      1.0  0.56497  0.63650  0.54332  1.0000
  H   H192      1.0  0.56350  0.60410  0.50554  1.0000
  C   C319      1.0  0.44599  0.36952  0.40537  1.0000
  C   C320      1.0  0.47017  0.35719  0.41151  1.0000
  H   H193      1.0  0.47867  0.35480  0.47291  1.0000
  C   C321      1.0  0.37459  0.40934  0.39773  1.0000
  C   C322      1.0  0.39572  0.39211  0.39489  1.0000
  H   H194      1.0  0.36363  0.41053  0.45462  1.0000
  C   C323      1.0  0.40278  0.37675  0.47549  1.0000
  C   C324      1.0  0.43239  0.37730  0.48919  1.0000
  H   H195      1.0  0.39643  0.35680  0.46527  1.0000
  H   H196      1.0  0.39345  0.38399  0.53617  1.0000
  H   H197      1.0  0.43713  0.36430  0.54456  1.0000
  H   H198      1.0  0.43860  0.39678  0.50777  1.0000
