data_image0
_chemical_formula_structural       C16H20C16H20C16H20C4H3CH3NHC4H3CH3NHC4H3CH3NHC4H3CH3NHC4H3CH3NHC4H3CH3NHC3NC3NC5NC5NC36H26C4H4C3NC3NC5NC5NC36H26C4H4C3NC3NC5NC5NC36H26C4H4C4H3CH3NHC4H3CH3NHC4H3CH3NHC4H3CH3NHC4H3CH3NHC4H3CH3NH
_chemical_formula_sum              "C276 H234 N24"
_cell_length_a       66.4645
_cell_length_b       66.4644
_cell_length_c       15.0008
_cell_angle_alpha    89.958
_cell_angle_beta     90.042
_cell_angle_gamma    120

_space_group_name_H-M_alt    "P 1"
_space_group_IT_number       1

loop_
  _space_group_symop_operation_xyz
  'x, y, z'

loop_
  _atom_site_type_symbol
  _atom_site_label
  _atom_site_symmetry_multiplicity
  _atom_site_fract_x
  _atom_site_fract_y
  _atom_site_fract_z
  _atom_site_occupancy
  C   C1        1.0  0.10285  0.54170  0.25025  1.0000
  C   C2        1.0  0.12119  0.53695  0.24506  1.0000
  C   C3        1.0  0.18792  0.53906  0.25816  1.0000
  C   C4        1.0  0.16922  0.54318  0.26568  1.0000
  C   C5        1.0  0.09656  0.65715  0.26824  1.0000
  C   C6        1.0  0.11242  0.68115  0.27288  1.0000
  C   C7        1.0  0.13375  0.73300  0.30619  1.0000
  C   C8        1.0  0.14967  0.75699  0.31172  1.0000
  C   C9        1.0  0.93892  0.58400  0.24559  1.0000
  C   C10       1.0  0.95707  0.57898  0.25069  1.0000
  C   C11       1.0  0.89134  0.57887  0.26688  1.0000
  C   C12       1.0  0.87297  0.58349  0.25922  1.0000
  C   C13       1.0  0.96329  0.46373  0.26802  1.0000
  C   C14       1.0  0.94720  0.43978  0.27269  1.0000
  C   C15       1.0  0.90873  0.36392  0.31113  1.0000
  C   C16       1.0  0.92502  0.38782  0.30566  1.0000
  H   H1        1.0  0.91062  0.35269  0.27011  1.0000
  H   H2        1.0  0.93853  0.39318  0.26174  1.0000
  H   H3        1.0  0.94067  0.43085  0.21441  1.0000
  H   H4        1.0  0.96832  0.47154  0.20691  1.0000
  H   H5        1.0  0.96304  0.57544  0.19331  1.0000
  H   H6        1.0  0.93232  0.58420  0.18412  1.0000
  H   H7        1.0  0.09147  0.64935  0.20713  1.0000
  H   H8        1.0  0.11874  0.69014  0.21458  1.0000
  H   H9        1.0  0.14743  0.76807  0.27098  1.0000
  H   H10       1.0  0.12016  0.72741  0.26247  1.0000
  H   H11       1.0  0.17034  0.55733  0.23381  1.0000
  H   H12       1.0  0.20193  0.55017  0.22027  1.0000
  H   H13       1.0  0.12771  0.53670  0.18352  1.0000
  H   H14       1.0  0.09667  0.54500  0.19283  1.0000
  H   H15       1.0  0.88984  0.56450  0.23555  1.0000
  H   H16       1.0  0.85879  0.57250  0.22180  1.0000
  H   H17       1.0  0.17990  0.80100  0.33967  1.0000
  H   H18       1.0  0.21082  0.51640  0.21717  1.0000
  H   H19       1.0  0.85094  0.60699  0.21725  1.0000
  H   H20       1.0  0.87782  0.32010  0.33893  1.0000
  C   C17       1.0  0.55080  0.65588  0.25086  1.0000
  C   C18       1.0  0.55555  0.67896  0.24567  1.0000
  C   C19       1.0  0.55343  0.74358  0.25873  1.0000
  C   C20       1.0  0.54931  0.72075  0.26628  1.0000
  C   C21       1.0  0.43535  0.53412  0.26884  1.0000
  C   C22       1.0  0.41134  0.52597  0.27349  1.0000
  C   C23       1.0  0.35950  0.49544  0.30684  1.0000
  C   C24       1.0  0.33551  0.48737  0.31236  1.0000
  C   C25       1.0  0.50851  0.44964  0.24605  1.0000
  C   C26       1.0  0.51353  0.47282  0.25116  1.0000
  C   C27       1.0  0.51363  0.40719  0.26732  1.0000
  C   C28       1.0  0.50901  0.38420  0.25968  1.0000
  C   C29       1.0  0.62878  0.59429  0.26858  1.0000
  C   C30       1.0  0.65273  0.60215  0.27326  1.0000
  C   C31       1.0  0.72858  0.63950  0.31178  1.0000
  C   C32       1.0  0.70469  0.63191  0.30630  1.0000
  H   H21       1.0  0.73982  0.65265  0.27080  1.0000
  H   H22       1.0  0.69933  0.64008  0.26242  1.0000
  H   H23       1.0  0.66166  0.60457  0.21499  1.0000
  H   H24       1.0  0.62097  0.59153  0.20747  1.0000
  H   H25       1.0  0.51708  0.48236  0.19379  1.0000
  H   H26       1.0  0.50831  0.44287  0.18458  1.0000
  H   H27       1.0  0.44314  0.53684  0.20773  1.0000
  H   H28       1.0  0.40235  0.52332  0.21519  1.0000
  H   H29       1.0  0.32443  0.47407  0.27163  1.0000
  H   H30       1.0  0.36509  0.48746  0.26313  1.0000
  H   H31       1.0  0.53517  0.70773  0.23436  1.0000
  H   H32       1.0  0.54233  0.74649  0.22079  1.0000
  H   H33       1.0  0.55580  0.68574  0.18413  1.0000
  H   H34       1.0  0.54750  0.64640  0.19345  1.0000
  H   H35       1.0  0.52801  0.42007  0.23601  1.0000
  H   H36       1.0  0.52001  0.38103  0.22227  1.0000
  H   H37       1.0  0.29150  0.47360  0.34031  1.0000
  H   H38       1.0  0.57610  0.78914  0.21767  1.0000
  H   H39       1.0  0.48552  0.33867  0.21777  1.0000
  H   H40       1.0  0.77240  0.65240  0.33961  1.0000
  C   C33       1.0  0.43664  0.98965  0.25126  1.0000
  C   C34       1.0  0.41356  0.97131  0.24598  1.0000
  C   C35       1.0  0.34894  0.90458  0.25876  1.0000
  C   C36       1.0  0.37177  0.92327  0.26642  1.0000
  C   C37       1.0  0.55837  0.99594  0.26950  1.0000
  C   C38       1.0  0.56652  0.98009  0.27412  1.0000
  C   C39       1.0  0.59705  0.95876  0.30739  1.0000
  C   C40       1.0  0.60513  0.94285  0.31290  1.0000
  C   C41       1.0  0.64282  0.15356  0.24645  1.0000
  C   C42       1.0  0.61965  0.13541  0.25167  1.0000
  C   C43       1.0  0.68526  0.20114  0.26750  1.0000
  C   C44       1.0  0.70825  0.21952  0.25972  1.0000
  C   C45       1.0  0.49820  0.12920  0.26915  1.0000
  C   C46       1.0  0.49034  0.14528  0.27384  1.0000
  C   C47       1.0  0.45298  0.18377  0.31237  1.0000
  C   C48       1.0  0.46057  0.16747  0.30691  1.0000
  H   H41       1.0  0.43983  0.18188  0.27138  1.0000
  H   H42       1.0  0.45241  0.15396  0.26300  1.0000
  H   H43       1.0  0.48791  0.15181  0.21557  1.0000
  H   H44       1.0  0.50096  0.12417  0.20803  1.0000
  H   H45       1.0  0.61009  0.12943  0.19434  1.0000
  H   H46       1.0  0.64957  0.16015  0.18495  1.0000
  H   H47       1.0  0.55565  0.00104  0.20839  1.0000
  H   H48       1.0  0.56917  0.97376  0.21581  1.0000
  H   H49       1.0  0.61843  0.94509  0.27215  1.0000
  H   H50       1.0  0.60503  0.97235  0.26370  1.0000
  H   H51       1.0  0.38480  0.92216  0.23460  1.0000
  H   H52       1.0  0.34604  0.89058  0.22082  1.0000
  H   H53       1.0  0.40679  0.96481  0.18442  1.0000
  H   H54       1.0  0.44613  0.99585  0.19389  1.0000
  H   H55       1.0  0.67238  0.20264  0.23627  1.0000
  H   H56       1.0  0.71141  0.23368  0.22227  1.0000
  H   H57       1.0  0.61891  0.91261  0.34080  1.0000
  H   H58       1.0  0.30340  0.88172  0.21742  1.0000
  H   H59       1.0  0.75376  0.24154  0.21746  1.0000
  H   H60       1.0  0.44009  0.21469  0.34018  1.0000
  C   C49       1.0  0.22708  0.49451  0.33297  1.0000
  C   C50       1.0  0.23779  0.49177  0.25508  1.0000
  C   C51       1.0  0.26108  0.49614  0.26042  1.0000
  C   C52       1.0  0.27419  0.49518  0.18045  1.0000
  H   H61       1.0  0.26490  0.49142  0.11749  1.0000
  H   H62       1.0  0.27889  0.48178  0.19030  1.0000
  H   H63       1.0  0.29007  0.51190  0.17194  1.0000
  C   C53       1.0  0.22488  0.48418  0.16851  1.0000
  H   H64       1.0  0.20675  0.47957  0.17182  1.0000
  H   H65       1.0  0.22489  0.46870  0.14434  1.0000
  H   H66       1.0  0.23324  0.49805  0.11927  1.0000
  N   N1        1.0  0.20593  0.49505  0.32895  1.0000
  H   H67       1.0  0.19238  0.47993  0.30450  1.0000
  C   C54       1.0  0.59800  0.82726  0.33349  1.0000
  C   C55       1.0  0.60074  0.84074  0.25560  1.0000
  C   C56       1.0  0.59637  0.85966  0.26094  1.0000
  C   C57       1.0  0.59733  0.87375  0.18096  1.0000
  H   H68       1.0  0.60108  0.86825  0.11800  1.0000
  H   H69       1.0  0.61074  0.89185  0.19080  1.0000
  H   H70       1.0  0.58061  0.87293  0.17247  1.0000
  C   C58       1.0  0.60832  0.83544  0.16902  1.0000
  H   H71       1.0  0.61293  0.82192  0.17232  1.0000
  H   H72       1.0  0.62380  0.85094  0.14484  1.0000
  H   H73       1.0  0.59445  0.82995  0.11979  1.0000
  N   N2        1.0  0.59745  0.80557  0.32946  1.0000
  H   H74       1.0  0.61257  0.80714  0.30501  1.0000
  C   C59       1.0  0.26522  0.86546  0.33291  1.0000
  C   C60       1.0  0.25180  0.85476  0.25491  1.0000
  C   C61       1.0  0.23288  0.83146  0.26010  1.0000
  C   C62       1.0  0.21883  0.81837  0.18002  1.0000
  H   H75       1.0  0.22436  0.82767  0.11711  1.0000
  H   H76       1.0  0.20073  0.81366  0.18974  1.0000
  H   H77       1.0  0.21968  0.80249  0.17151  1.0000
  C   C63       1.0  0.25713  0.86769  0.16838  1.0000
  H   H78       1.0  0.27065  0.88582  0.17179  1.0000
  H   H79       1.0  0.24164  0.86768  0.14408  1.0000
  H   H80       1.0  0.26265  0.85934  0.11919  1.0000
  N   N3        1.0  0.28692  0.88659  0.32906  1.0000
  H   H81       1.0  0.28538  0.90016  0.30458  1.0000
  C   C64       1.0  0.83552  0.62971  0.33253  1.0000
  C   C65       1.0  0.82492  0.63263  0.25460  1.0000
  C   C66       1.0  0.80181  0.62876  0.26004  1.0000
  C   C67       1.0  0.78880  0.62995  0.18006  1.0000
  H   H82       1.0  0.79801  0.63347  0.11702  1.0000
  H   H83       1.0  0.78448  0.64362  0.18965  1.0000
  H   H84       1.0  0.77271  0.61339  0.17188  1.0000
  C   C68       1.0  0.83777  0.63989  0.16786  1.0000
  H   H85       1.0  0.85580  0.64412  0.17105  1.0000
  H   H86       1.0  0.83811  0.65553  0.14338  1.0000
  H   H87       1.0  0.82913  0.62600  0.11891  1.0000
  N   N4        1.0  0.85639  0.62864  0.32852  1.0000
  H   H88       1.0  0.87012  0.64357  0.30370  1.0000
  C   C69       1.0  0.46282  0.30052  0.33309  1.0000
  C   C70       1.0  0.45988  0.28701  0.25516  1.0000
  C   C71       1.0  0.46374  0.26776  0.26060  1.0000
  C   C72       1.0  0.46254  0.25359  0.18063  1.0000
  H   H89       1.0  0.45902  0.25929  0.11759  1.0000
  H   H90       1.0  0.44886  0.23559  0.19024  1.0000
  H   H91       1.0  0.47909  0.25405  0.17244  1.0000
  C   C73       1.0  0.45261  0.29263  0.16842  1.0000
  H   H92       1.0  0.44839  0.30642  0.17160  1.0000
  H   H93       1.0  0.43697  0.27733  0.14396  1.0000
  H   H94       1.0  0.46650  0.29788  0.11946  1.0000
  N   N5        1.0  0.46388  0.32245  0.32905  1.0000
  H   H95       1.0  0.44894  0.32125  0.30425  1.0000
  C   C74       1.0  0.79197  0.25698  0.33249  1.0000
  C   C75       1.0  0.80544  0.26755  0.25445  1.0000
  C   C76       1.0  0.82470  0.29066  0.25976  1.0000
  C   C77       1.0  0.83884  0.30363  0.17968  1.0000
  H   H96       1.0  0.83310  0.29441  0.11669  1.0000
  H   H97       1.0  0.85683  0.30794  0.18918  1.0000
  H   H98       1.0  0.83838  0.31973  0.17148  1.0000
  C   C78       1.0  0.79978  0.25468  0.16776  1.0000
  H   H99       1.0  0.78598  0.23666  0.17103  1.0000
  H   H100      1.0  0.81505  0.25432  0.14319  1.0000
  H   H101      1.0  0.79451  0.26332  0.11883  1.0000
  N   N6        1.0  0.77004  0.23611  0.32861  1.0000
  H   H102      1.0  0.77122  0.22238  0.30380  1.0000
  C   C79       1.0  0.02140  0.49242  0.33881  1.0000
  C   C80       1.0  0.04534  0.50534  0.33699  1.0000
  C   C81       1.0  0.05188  0.52886  0.33881  1.0000
  N   N7        1.0  0.03173  0.52931  0.34102  1.0000
  C   C82       1.0  0.01276  0.50774  0.34103  1.0000
  C   C83       1.0  0.98880  0.50100  0.34285  1.0000
  C   C84       1.0  0.98001  0.51655  0.34247  1.0000
  N   N8        1.0  0.99225  0.54001  0.34060  1.0000
  C   C85       1.0  0.97824  0.54930  0.34030  1.0000
  C   C86       1.0  0.95551  0.53058  0.34197  1.0000
  C   C87       1.0  0.95660  0.51039  0.34351  1.0000
  C   C88       1.0  0.98490  0.57319  0.33866  1.0000
  C   C89       1.0  0.00821  0.59195  0.33896  1.0000
  N   N9        1.0  0.02836  0.59150  0.34127  1.0000
  C   C90       1.0  0.04733  0.61306  0.34122  1.0000
  C   C91       1.0  0.03869  0.62839  0.33883  1.0000
  C   C92       1.0  0.01475  0.61547  0.33700  1.0000
  C   C93       1.0  0.07129  0.61981  0.34311  1.0000
  C   C94       1.0  0.08008  0.60426  0.34272  1.0000
  N   N10       1.0  0.06783  0.58081  0.34076  1.0000
  C   C95       1.0  0.08184  0.57151  0.34029  1.0000
  C   C96       1.0  0.10457  0.59023  0.34189  1.0000
  C   C97       1.0  0.10349  0.61043  0.34363  1.0000
  C   C98       1.0  0.07518  0.54762  0.33849  1.0000
  C   C99       1.0  0.09330  0.54215  0.33367  1.0000
  C   C100      1.0  0.13036  0.53243  0.32285  1.0000
  C   C101      1.0  0.12040  0.53254  0.40613  1.0000
  C   C102      1.0  0.10216  0.53747  0.41163  1.0000
  C   C103      1.0  0.14943  0.52834  0.31707  1.0000
  C   C104      1.0  0.14914  0.50944  0.36170  1.0000
  C   C105      1.0  0.16782  0.50522  0.35357  1.0000
  C   C106      1.0  0.18743  0.51985  0.30089  1.0000
  C   C107      1.0  0.08773  0.64399  0.34702  1.0000
  C   C108      1.0  0.11992  0.69260  0.35612  1.0000
  C   C109      1.0  0.11093  0.67917  0.43465  1.0000
  C   C110      1.0  0.09503  0.65520  0.43031  1.0000
  C   C111      1.0  0.13609  0.71694  0.36105  1.0000
  C   C112      1.0  0.16850  0.76567  0.37209  1.0000
  C   C113      1.0  0.17084  0.74971  0.42718  1.0000
  C   C114      1.0  0.15494  0.72575  0.42166  1.0000
  C   C115      1.0  0.96680  0.57868  0.33397  1.0000
  C   C116      1.0  0.95827  0.58377  0.41186  1.0000
  C   C117      1.0  0.94022  0.58897  0.40643  1.0000
  C   C118      1.0  0.93012  0.58898  0.32330  1.0000
  C   C119      1.0  0.91135  0.59353  0.31757  1.0000
  C   C120      1.0  0.87401  0.60303  0.30114  1.0000
  C   C121      1.0  0.89384  0.61750  0.35314  1.0000
  C   C122      1.0  0.91219  0.61278  0.36140  1.0000
  C   C123      1.0  0.97234  0.47683  0.34678  1.0000
  C   C124      1.0  0.96507  0.46560  0.43008  1.0000
  C   C125      1.0  0.93969  0.42833  0.35594  1.0000
  C   C126      1.0  0.94894  0.44168  0.43444  1.0000
  C   C127      1.0  0.92316  0.40408  0.36090  1.0000
  C   C128      1.0  0.90440  0.39557  0.42175  1.0000
  C   C129      1.0  0.88812  0.37172  0.42720  1.0000
  C   C130      1.0  0.88998  0.35554  0.37176  1.0000
  H   H103      1.0  0.87478  0.36622  0.47197  1.0000
  H   H104      1.0  0.90215  0.40673  0.46196  1.0000
  H   H105      1.0  0.94430  0.43403  0.49592  1.0000
  H   H106      1.0  0.97152  0.47473  0.48805  1.0000
  H   H107      1.0  0.01206  0.47467  0.33793  1.0000
  H   H108      1.0  0.05601  0.49839  0.33511  1.0000
  H   H109      1.0  0.03097  0.54334  0.34331  1.0000
  H   H110      1.0  0.02911  0.57746  0.34381  1.0000
  H   H111      1.0  0.94248  0.49401  0.34483  1.0000
  H   H112      1.0  0.94047  0.53123  0.34249  1.0000
  H   H113      1.0  0.96505  0.58356  0.47295  1.0000
  H   H114      1.0  0.93409  0.59214  0.46417  1.0000
  H   H115      1.0  0.00409  0.62243  0.33499  1.0000
  H   H116      1.0  0.04803  0.64614  0.33793  1.0000
  H   H117      1.0  0.11962  0.58959  0.34227  1.0000
  H   H118      1.0  0.11761  0.62681  0.34489  1.0000
  H   H119      1.0  0.08871  0.64603  0.48829  1.0000
  H   H120      1.0  0.11556  0.68682  0.49613  1.0000
  H   H121      1.0  0.15752  0.71476  0.46161  1.0000
  H   H122      1.0  0.18425  0.75542  0.47177  1.0000
  H   H123      1.0  0.09555  0.53783  0.47283  1.0000
  H   H124      1.0  0.12682  0.52973  0.46392  1.0000
  H   H125      1.0  0.16686  0.49130  0.38652  1.0000
  H   H126      1.0  0.13505  0.49822  0.39898  1.0000
  H   H127      1.0  0.92646  0.62391  0.39805  1.0000
  H   H128      1.0  0.89521  0.63166  0.38546  1.0000
  C   C131      1.0  0.18575  0.79092  0.37830  1.0000
  C   C132      1.0  0.20771  0.51637  0.28870  1.0000
  C   C133      1.0  0.87233  0.33042  0.37785  1.0000
  C   C134      1.0  0.85407  0.60705  0.28878  1.0000
  H   H129      1.0  0.18688  0.79638  0.44763  1.0000
  H   H130      1.0  0.22277  0.53156  0.31759  1.0000
  H   H131      1.0  0.83885  0.59209  0.31802  1.0000
  H   H132      1.0  0.87114  0.32486  0.44710  1.0000
  C   C135      1.0  0.60009  0.62368  0.33937  1.0000
  C   C136      1.0  0.58716  0.63470  0.33759  1.0000
  C   C137      1.0  0.56364  0.61772  0.33939  1.0000
  N   N11       1.0  0.56319  0.59711  0.34157  1.0000
  C   C138      1.0  0.58476  0.59971  0.34157  1.0000
  C   C139      1.0  0.59150  0.58250  0.34339  1.0000
  C   C140      1.0  0.57595  0.55815  0.34302  1.0000
  N   N12       1.0  0.55250  0.54694  0.34112  1.0000
  C   C141      1.0  0.54320  0.52364  0.34081  1.0000
  C   C142      1.0  0.56192  0.51963  0.34249  1.0000
  C   C143      1.0  0.58212  0.54091  0.34406  1.0000
  C   C144      1.0  0.51931  0.50641  0.33915  1.0000
  C   C145      1.0  0.50055  0.51095  0.33947  1.0000
  N   N13       1.0  0.50100  0.53156  0.34182  1.0000
  C   C146      1.0  0.47944  0.52896  0.34178  1.0000
  C   C147      1.0  0.46411  0.50499  0.33940  1.0000
  C   C148      1.0  0.47704  0.49398  0.33745  1.0000
  C   C149      1.0  0.47269  0.54617  0.34370  1.0000
  C   C150      1.0  0.48824  0.57051  0.34331  1.0000
  N   N14       1.0  0.51169  0.58172  0.34136  1.0000
  C   C151      1.0  0.52099  0.60502  0.34091  1.0000
  C   C152      1.0  0.50227  0.60903  0.34254  1.0000
  C   C153      1.0  0.48207  0.58775  0.34422  1.0000
  C   C154      1.0  0.54488  0.62226  0.33912  1.0000
  C   C155      1.0  0.55035  0.64584  0.33429  1.0000
  C   C156      1.0  0.56006  0.69263  0.32346  1.0000
  C   C157      1.0  0.55993  0.68252  0.40674  1.0000
  C   C158      1.0  0.55503  0.65936  0.41224  1.0000
  C   C159      1.0  0.56414  0.71578  0.31767  1.0000
  C   C160      1.0  0.58304  0.73438  0.36233  1.0000
  C   C161      1.0  0.58728  0.75729  0.35415  1.0000
  C   C162      1.0  0.57264  0.76228  0.30145  1.0000
  C   C163      1.0  0.44852  0.53843  0.34761  1.0000
  C   C164      1.0  0.39990  0.52200  0.35673  1.0000
  C   C165      1.0  0.41333  0.52642  0.43525  1.0000
  C   C166      1.0  0.43731  0.53449  0.43090  1.0000
  C   C167      1.0  0.37556  0.51383  0.36167  1.0000
  C   C168      1.0  0.32683  0.49751  0.37272  1.0000
  C   C169      1.0  0.34280  0.51580  0.42779  1.0000
  C   C170      1.0  0.36675  0.52386  0.42224  1.0000
  C   C171      1.0  0.51382  0.48282  0.33445  1.0000
  C   C172      1.0  0.50873  0.46918  0.41232  1.0000
  C   C173      1.0  0.50355  0.44593  0.40689  1.0000
  C   C174      1.0  0.50352  0.43584  0.32375  1.0000
  C   C175      1.0  0.49897  0.41252  0.31801  1.0000
  C   C176      1.0  0.48947  0.36569  0.30160  1.0000
  C   C177      1.0  0.47500  0.37103  0.35360  1.0000
  C   C178      1.0  0.47971  0.39409  0.36179  1.0000
  C   C179      1.0  0.61568  0.59021  0.34733  1.0000
  C   C180      1.0  0.62690  0.59413  0.43064  1.0000
  C   C181      1.0  0.66417  0.60604  0.35652  1.0000
  C   C182      1.0  0.65082  0.60190  0.43502  1.0000
  C   C183      1.0  0.68842  0.61376  0.36150  1.0000
  C   C184      1.0  0.69692  0.60347  0.42230  1.0000
  C   C185      1.0  0.72077  0.61104  0.42776  1.0000
  C   C186      1.0  0.73695  0.62909  0.37237  1.0000
  H   H133      1.0  0.72626  0.60316  0.47249  1.0000
  H   H134      1.0  0.68576  0.59004  0.46247  1.0000
  H   H135      1.0  0.65847  0.60489  0.49650  1.0000
  H   H136      1.0  0.61776  0.59142  0.48860  1.0000
  H   H137      1.0  0.61784  0.63209  0.33863  1.0000
  H   H138      1.0  0.59411  0.65232  0.33586  1.0000
  H   H139      1.0  0.54916  0.58232  0.34371  1.0000
  H   H140      1.0  0.51504  0.54635  0.34439  1.0000
  H   H141      1.0  0.59850  0.54317  0.34541  1.0000
  H   H142      1.0  0.56128  0.50394  0.34304  1.0000
  H   H143      1.0  0.50893  0.47613  0.47342  1.0000
  H   H144      1.0  0.50035  0.43659  0.46462  1.0000
  H   H145      1.0  0.47008  0.47636  0.33545  1.0000
  H   H146      1.0  0.44636  0.49658  0.33842  1.0000
  H   H147      1.0  0.50291  0.62472  0.34290  1.0000
  H   H148      1.0  0.46569  0.58549  0.34551  1.0000
  H   H149      1.0  0.44648  0.53732  0.48888  1.0000
  H   H150      1.0  0.40569  0.52338  0.49674  1.0000
  H   H151      1.0  0.37775  0.53742  0.46221  1.0000
  H   H152      1.0  0.33709  0.52348  0.47236  1.0000
  H   H153      1.0  0.55467  0.65236  0.47345  1.0000
  H   H154      1.0  0.56276  0.69174  0.46453  1.0000
  H   H155      1.0  0.60119  0.77023  0.38708  1.0000
  H   H156      1.0  0.59427  0.73150  0.39956  1.0000
  H   H157      1.0  0.46859  0.39723  0.39852  1.0000
  H   H158      1.0  0.46084  0.35822  0.38594  1.0000
  C   C187      1.0  0.30159  0.48952  0.37890  1.0000
  C   C188      1.0  0.57613  0.78605  0.28920  1.0000
  C   C189      1.0  0.76208  0.63656  0.37845  1.0000
  C   C190      1.0  0.48546  0.34173  0.28930  1.0000
  H   H159      1.0  0.29612  0.48518  0.44823  1.0000
  H   H160      1.0  0.56095  0.78592  0.31807  1.0000
  H   H161      1.0  0.50042  0.34147  0.31855  1.0000
  H   H162      1.0  0.76764  0.64088  0.44772  1.0000
  C   C191      1.0  0.46881  0.07110  0.33997  1.0000
  C   C192      1.0  0.45779  0.04715  0.33819  1.0000
  C   C193      1.0  0.47477  0.04061  0.33996  1.0000
  N   N15       1.0  0.49538  0.06077  0.34215  1.0000
  C   C194      1.0  0.49278  0.07974  0.34215  1.0000
  C   C195      1.0  0.51000  0.10369  0.34394  1.0000
  C   C196      1.0  0.53434  0.11248  0.34359  1.0000
  N   N16       1.0  0.54555  0.10024  0.34174  1.0000
  C   C197      1.0  0.56885  0.11425  0.34142  1.0000
  C   C198      1.0  0.57286  0.13698  0.34300  1.0000
  C   C199      1.0  0.55158  0.13589  0.34461  1.0000
  C   C200      1.0  0.58609  0.10759  0.33981  1.0000
  C   C201      1.0  0.58154  0.08429  0.34019  1.0000
  N   N17       1.0  0.56094  0.06413  0.34258  1.0000
  C   C202      1.0  0.56353  0.04517  0.34253  1.0000
  C   C203      1.0  0.58750  0.05381  0.34015  1.0000
  C   C204      1.0  0.59852  0.07775  0.33823  1.0000
  C   C205      1.0  0.54633  0.02121  0.34440  1.0000
  C   C206      1.0  0.52198  0.01242  0.34393  1.0000
  N   N18       1.0  0.51078  0.02466  0.34198  1.0000
  C   C207      1.0  0.48747  0.01065  0.34146  1.0000
  C   C208      1.0  0.48346  0.98792  0.34305  1.0000
  C   C209      1.0  0.50475  0.98901  0.34481  1.0000
  C   C210      1.0  0.47024  0.01731  0.33963  1.0000
  C   C211      1.0  0.44666  0.99920  0.33473  1.0000
  C   C212      1.0  0.39988  0.96212  0.32372  1.0000
  C   C213      1.0  0.40996  0.97206  0.40704  1.0000
  C   C214      1.0  0.43312  0.99032  0.41264  1.0000
  C   C215      1.0  0.37673  0.94306  0.31785  1.0000
  C   C216      1.0  0.35810  0.94333  0.36239  1.0000
  C   C217      1.0  0.33520  0.92467  0.35407  1.0000
  C   C218      1.0  0.33022  0.90507  0.30135  1.0000
  C   C219      1.0  0.55406  0.00477  0.34829  1.0000
  C   C220      1.0  0.57050  0.97258  0.35735  1.0000
  C   C221      1.0  0.56607  0.98156  0.43589  1.0000
  C   C222      1.0  0.55801  0.99747  0.43156  1.0000
  C   C223      1.0  0.57866  0.95641  0.36226  1.0000
  C   C224      1.0  0.59500  0.92400  0.37325  1.0000
  C   C225      1.0  0.57671  0.92166  0.42834  1.0000
  C   C226      1.0  0.56865  0.93756  0.42283  1.0000
  C   C227      1.0  0.60967  0.12570  0.33500  1.0000
  C   C228      1.0  0.62334  0.13423  0.41282  1.0000
  C   C229      1.0  0.64659  0.15230  0.40727  1.0000
  C   C230      1.0  0.65665  0.16238  0.32409  1.0000
  C   C231      1.0  0.67995  0.18114  0.31823  1.0000
  C   C232      1.0  0.72678  0.21848  0.30152  1.0000
  C   C233      1.0  0.72147  0.19867  0.35355  1.0000
  C   C234      1.0  0.69841  0.18032  0.36193  1.0000
  C   C235      1.0  0.50228  0.12015  0.34789  1.0000
  C   C236      1.0  0.49837  0.12743  0.43120  1.0000
  C   C237      1.0  0.48644  0.15280  0.35711  1.0000
  C   C238      1.0  0.49059  0.14356  0.43559  1.0000
  C   C239      1.0  0.47873  0.16933  0.36209  1.0000
  C   C240      1.0  0.48902  0.18810  0.42290  1.0000
  C   C241      1.0  0.48145  0.20439  0.42834  1.0000
  C   C242      1.0  0.46339  0.20253  0.37295  1.0000
  H   H163      1.0  0.48933  0.21774  0.47307  1.0000
  H   H164      1.0  0.50244  0.19036  0.46306  1.0000
  H   H165      1.0  0.48760  0.14821  0.49708  1.0000
  H   H166      1.0  0.50107  0.12098  0.48916  1.0000
  H   H167      1.0  0.46040  0.08043  0.33913  1.0000
  H   H168      1.0  0.44017  0.03648  0.33635  1.0000
  H   H169      1.0  0.51017  0.06152  0.34431  1.0000
  H   H170      1.0  0.54615  0.06338  0.34513  1.0000
  H   H171      1.0  0.54932  0.15001  0.34588  1.0000
  H   H172      1.0  0.58855  0.15203  0.34358  1.0000
  H   H173      1.0  0.61640  0.12748  0.47395  1.0000
  H   H174      1.0  0.65593  0.15844  0.46497  1.0000
  H   H175      1.0  0.61614  0.08841  0.33611  1.0000
  H   H176      1.0  0.59591  0.04447  0.33911  1.0000
  H   H177      1.0  0.46778  0.97287  0.34335  1.0000
  H   H178      1.0  0.50701  0.97489  0.34607  1.0000
  H   H179      1.0  0.55518  0.00379  0.48955  1.0000
  H   H180      1.0  0.56912  0.97694  0.49736  1.0000
  H   H181      1.0  0.55509  0.93497  0.46279  1.0000
  H   H182      1.0  0.56903  0.90824  0.47290  1.0000
  H   H183      1.0  0.44010  0.99692  0.47387  1.0000
  H   H184      1.0  0.40072  0.96564  0.46479  1.0000
  H   H185      1.0  0.32224  0.92563  0.38693  1.0000
  H   H186      1.0  0.36097  0.95743  0.39963  1.0000
  H   H187      1.0  0.69529  0.16605  0.39863  1.0000
  H   H188      1.0  0.73429  0.19731  0.38579  1.0000
  C   C243      1.0  0.60300  0.90675  0.37940  1.0000
  C   C244      1.0  0.30646  0.88480  0.28896  1.0000
  C   C245      1.0  0.45593  0.22019  0.37902  1.0000
  C   C246      1.0  0.75074  0.23842  0.28901  1.0000
  H   H189      1.0  0.60734  0.90560  0.44873  1.0000
  H   H190      1.0  0.30657  0.86973  0.31787  1.0000
  H   H191      1.0  0.75102  0.25365  0.31825  1.0000
  H   H192      1.0  0.45161  0.22141  0.44829  1.0000
  C   C247      1.0  0.27288  0.50218  0.34390  1.0000
  C   C248      1.0  0.26176  0.50385  0.42256  1.0000
  C   C249      1.0  0.23844  0.49938  0.41720  1.0000
  C   C250      1.0  0.27438  0.51114  0.51000  1.0000
  H   H193      1.0  0.29255  0.51588  0.50739  1.0000
  H   H194      1.0  0.26598  0.49704  0.55825  1.0000
  H   H195      1.0  0.27415  0.52639  0.53550  1.0000
  C   C251      1.0  0.22624  0.50043  0.49987  1.0000
  H   H196      1.0  0.20798  0.49504  0.49034  1.0000
  H   H197      1.0  0.23480  0.51814  0.52567  1.0000
  H   H198      1.0  0.22664  0.48890  0.55076  1.0000
  N   N19       1.0  0.29644  0.50742  0.34391  1.0000
  H   H199      1.0  0.30727  0.52393  0.36707  1.0000
  C   C252      1.0  0.59034  0.86540  0.34442  1.0000
  C   C253      1.0  0.58867  0.85258  0.42307  1.0000
  C   C254      1.0  0.59312  0.83372  0.41772  1.0000
  C   C255      1.0  0.58138  0.85788  0.51052  1.0000
  H   H200      1.0  0.57665  0.87132  0.50792  1.0000
  H   H201      1.0  0.59547  0.86355  0.55877  1.0000
  H   H202      1.0  0.56612  0.84240  0.53599  1.0000
  C   C256      1.0  0.59207  0.82044  0.50038  1.0000
  H   H203      1.0  0.59745  0.80757  0.49085  1.0000
  H   H204      1.0  0.57435  0.81129  0.52618  1.0000
  H   H205      1.0  0.60360  0.83235  0.55127  1.0000
  N   N20       1.0  0.58509  0.88371  0.34442  1.0000
  H   H206      1.0  0.56859  0.87803  0.36759  1.0000
  C   C257      1.0  0.22711  0.81964  0.34353  1.0000
  C   C258      1.0  0.23989  0.83074  0.42228  1.0000
  C   C259      1.0  0.25874  0.85407  0.41708  1.0000
  C   C260      1.0  0.23456  0.81809  0.50966  1.0000
  H   H207      1.0  0.22114  0.79992  0.50694  1.0000
  H   H208      1.0  0.22886  0.82647  0.55791  1.0000
  H   H209      1.0  0.25005  0.81833  0.53522  1.0000
  C   C261      1.0  0.27197  0.86625  0.49985  1.0000
  H   H210      1.0  0.28482  0.88451  0.49043  1.0000
  H   H211      1.0  0.28114  0.85769  0.52568  1.0000
  H   H212      1.0  0.26003  0.86581  0.55067  1.0000
  N   N21       1.0  0.20881  0.79608  0.34340  1.0000
  H   H213      1.0  0.21448  0.78524  0.36656  1.0000
  C   C262      1.0  0.79009  0.62302  0.34364  1.0000
  C   C263      1.0  0.80111  0.62115  0.42231  1.0000
  C   C264      1.0  0.82426  0.62512  0.41686  1.0000
  C   C265      1.0  0.78854  0.61415  0.50988  1.0000
  H   H214      1.0  0.77048  0.60978  0.50738  1.0000
  H   H215      1.0  0.79722  0.62825  0.55790  1.0000
  H   H216      1.0  0.78844  0.59874  0.53561  1.0000
  C   C266      1.0  0.83636  0.62386  0.49953  1.0000
  H   H217      1.0  0.85452  0.62888  0.48990  1.0000
  H   H218      1.0  0.82751  0.60616  0.52564  1.0000
  H   H219      1.0  0.83627  0.63557  0.55023  1.0000
  N   N22       1.0  0.76670  0.61828  0.34377  1.0000
  H   H220      1.0  0.75562  0.60187  0.36724  1.0000
  C   C267      1.0  0.46948  0.26176  0.34420  1.0000
  C   C268      1.0  0.47135  0.27462  0.42287  1.0000
  C   C269      1.0  0.46740  0.29381  0.41742  1.0000
  C   C270      1.0  0.47835  0.26902  0.51045  1.0000
  H   H221      1.0  0.48271  0.25532  0.50795  1.0000
  H   H222      1.0  0.46424  0.26358  0.55845  1.0000
  H   H223      1.0  0.49376  0.28431  0.53620  1.0000
  C   C271      1.0  0.46866  0.30715  0.50008  1.0000
  H   H224      1.0  0.46365  0.32030  0.49044  1.0000
  H   H225      1.0  0.48635  0.31598  0.52620  1.0000
  H   H226      1.0  0.45694  0.29533  0.55078  1.0000
  N   N23       1.0  0.47421  0.24309  0.34434  1.0000
  H   H227      1.0  0.49062  0.24842  0.36781  1.0000
  C   C272      1.0  0.83075  0.30239  0.34331  1.0000
  C   C273      1.0  0.81792  0.29140  0.42207  1.0000
  C   C274      1.0  0.79873  0.26826  0.41676  1.0000
  C   C275      1.0  0.82356  0.30400  0.50960  1.0000
  H   H228      1.0  0.83726  0.32206  0.50700  1.0000
  H   H229      1.0  0.82901  0.29532  0.55759  1.0000
  H   H230      1.0  0.80828  0.30412  0.53542  1.0000
  C   C276      1.0  0.78542  0.25619  0.49952  1.0000
  H   H231      1.0  0.77226  0.23803  0.48998  1.0000
  H   H232      1.0  0.77661  0.26505  0.52569  1.0000
  H   H233      1.0  0.79726  0.25627  0.55014  1.0000
  N   N24       1.0  0.84941  0.32579  0.34330  1.0000
  H   H234      1.0  0.84409  0.33688  0.36678  1.0000
