data_image0
_chemical_formula_structural       C4HOC3H3CHC2HCHC3H3C4HOC3H3CHC2HCHC3H3C3HOCOHCHC3H6C2H2C3H3CHC3HOCOHCHC3H6C2H2C3H3CHC5HC6HCH3C3HCH3C4HC3HCH3C3HCH3C5HC6HCH3C3HCH3C4HC3HCH3C3HCH3C4OHC3OHCOC3HCH3C3HCH3C2H3C2H2C3HCH3C3HCH3C4OHC3OHCOC3HCH3C3HCH3C2H3C2H2C3HCH3C3HCH3C4HOC4OHC4HOC4OHC4HOC4OHC3HCH3C3HCH3C3HCH3C3HCH3C3HCH3C3HCH3C4H4C4H4C4H4C3HCH3C3HCH3C3HCH3C3HCH3C3HCH3C3HCH3C4HOC4OHC4HOC4OHC4HOC4OHC3HCH3C3HCH3C3HCH3C3HCH3C3HCH3C3HCH3C4H4C4H4C4H4C3HCH3C3HCH3C3HCH3C3HCH3C3HCH3C3HCH3
_chemical_formula_sum              "C336 H264 O24"
_cell_length_a       46.7783
_cell_length_b       46.7783
_cell_length_c       14.8185
_cell_angle_alpha    90
_cell_angle_beta     90
_cell_angle_gamma    120

_space_group_name_H-M_alt    "P 1"
_space_group_IT_number       1

loop_
  _space_group_symop_operation_xyz
  'x, y, z'

loop_
  _atom_site_type_symbol
  _atom_site_label
  _atom_site_symmetry_multiplicity
  _atom_site_fract_x
  _atom_site_fract_y
  _atom_site_fract_z
  _atom_site_occupancy
  C   C1        1.0  0.02715  0.26506  0.34503  1.0000
  C   C2        1.0  0.04645  0.30044  0.34576  1.0000
  C   C3        1.0  0.08142  0.31839  0.34622  1.0000
  C   C4        1.0  0.09857  0.30067  0.34573  1.0000
  H   H1        1.0  0.03543  0.31445  0.34677  1.0000
  O   O1        1.0  0.13230  0.31750  0.34501  1.0000
  C   C5        1.0  0.09994  0.24936  0.34095  1.0000
  C   C6        1.0  0.11641  0.24946  0.25997  1.0000
  C   C7        1.0  0.10487  0.25271  0.16889  1.0000
  H   H2        1.0  0.08083  0.25118  0.17035  1.0000
  H   H3        1.0  0.10263  0.23290  0.12517  1.0000
  H   H4        1.0  0.12267  0.27638  0.13914  1.0000
  C   C8        1.0  0.11498  0.36880  0.26428  1.0000
  H   H5        1.0  0.10528  0.35589  0.20559  1.0000
  C   C9        1.0  0.08132  0.26580  0.34378  1.0000
  C   C10       1.0  0.04635  0.24888  0.34410  1.0000
  H   H6        1.0  0.03525  0.22385  0.34234  1.0000
  C   C11       1.0  0.11432  0.24796  0.42381  1.0000
  H   H7        1.0  0.10420  0.25035  0.48278  1.0000
  C   C12       1.0  0.10015  0.35346  0.34711  1.0000
  C   C13       1.0  0.11592  0.37040  0.42821  1.0000
  C   C14       1.0  0.10407  0.35606  0.51961  1.0000
  H   H8        1.0  0.08024  0.33332  0.51820  1.0000
  H   H9        1.0  0.10127  0.37369  0.56162  1.0000
  H   H10       1.0  0.12198  0.35076  0.55130  1.0000
  C   C15       1.0  0.02715  0.76506  0.34503  1.0000
  C   C16       1.0  0.04645  0.80044  0.34576  1.0000
  C   C17       1.0  0.08142  0.81839  0.34622  1.0000
  C   C18       1.0  0.09857  0.80066  0.34573  1.0000
  H   H11       1.0  0.03543  0.81445  0.34677  1.0000
  O   O2        1.0  0.13230  0.81749  0.34501  1.0000
  C   C19       1.0  0.09994  0.74936  0.34095  1.0000
  C   C20       1.0  0.11641  0.74945  0.25997  1.0000
  C   C21       1.0  0.10486  0.75270  0.16889  1.0000
  H   H12       1.0  0.08083  0.75118  0.17035  1.0000
  H   H13       1.0  0.10263  0.73290  0.12517  1.0000
  H   H14       1.0  0.12267  0.77638  0.13914  1.0000
  C   C22       1.0  0.11498  0.86880  0.26428  1.0000
  H   H15       1.0  0.10528  0.85589  0.20559  1.0000
  C   C23       1.0  0.08132  0.76580  0.34378  1.0000
  C   C24       1.0  0.04635  0.74888  0.34410  1.0000
  H   H16       1.0  0.03525  0.72385  0.34234  1.0000
  C   C25       1.0  0.11432  0.74796  0.42381  1.0000
  H   H17       1.0  0.10420  0.75035  0.48278  1.0000
  C   C26       1.0  0.10015  0.85345  0.34711  1.0000
  C   C27       1.0  0.11592  0.87040  0.42821  1.0000
  C   C28       1.0  0.10407  0.85606  0.51961  1.0000
  H   H18       1.0  0.08024  0.83332  0.51820  1.0000
  H   H19       1.0  0.10127  0.87369  0.56162  1.0000
  H   H20       1.0  0.12198  0.85076  0.55130  1.0000
  C   C29       1.0  0.21483  0.24901  0.34587  1.0000
  C   C30       1.0  0.19688  0.26603  0.34647  1.0000
  C   C31       1.0  0.21460  0.30090  0.34609  1.0000
  H   H21       1.0  0.20083  0.22398  0.34688  1.0000
  O   O3        1.0  0.19776  0.31779  0.34550  1.0000
  C   C32       1.0  0.21437  0.41678  0.34566  1.0000
  O   O4        1.0  0.19746  0.38304  0.34491  1.0000
  H   H22       1.0  0.22708  0.03238  0.34688  1.0000
  C   C33       1.0  0.14654  0.24921  0.26451  1.0000
  H   H23       1.0  0.15947  0.25242  0.20585  1.0000
  C   C34       1.0  0.16168  0.41541  0.34080  1.0000
  C   C35       1.0  0.14534  0.39896  0.25980  1.0000
  C   C36       1.0  0.16013  0.41055  0.16873  1.0000
  H   H24       1.0  0.18262  0.43459  0.17026  1.0000
  H   H25       1.0  0.14255  0.41277  0.12505  1.0000
  H   H26       1.0  0.16604  0.39278  0.13893  1.0000
  H   H27       1.0  0.13912  0.32049  0.40868  1.0000
  H   H28       1.0  0.19482  0.32165  0.40918  1.0000
  H   H29       1.0  0.22690  0.19778  0.34232  1.0000
  C   C37       1.0  0.19675  0.43403  0.34368  1.0000
  C   C38       1.0  0.21480  0.46900  0.34400  1.0000
  H   H30       1.0  0.19364  0.37621  0.40857  1.0000
  H   H31       1.0  0.20086  0.48010  0.34219  1.0000
  C   C39       1.0  0.16180  0.24967  0.34743  1.0000
  C   C40       1.0  0.14488  0.24853  0.42852  1.0000
  C   C41       1.0  0.15920  0.25099  0.51992  1.0000
  H   H32       1.0  0.18194  0.24989  0.51851  1.0000
  H   H33       1.0  0.14156  0.23058  0.56191  1.0000
  H   H34       1.0  0.16453  0.27421  0.55162  1.0000
  C   C42       1.0  0.14589  0.40098  0.42361  1.0000
  H   H35       1.0  0.15839  0.41110  0.48261  1.0000
  C   C43       1.0  0.21483  0.74901  0.34587  1.0000
  C   C44       1.0  0.19688  0.76603  0.34647  1.0000
  C   C45       1.0  0.21460  0.80089  0.34609  1.0000
  H   H36       1.0  0.20083  0.72398  0.34688  1.0000
  O   O5        1.0  0.19776  0.81779  0.34550  1.0000
  C   C46       1.0  0.21437  0.91678  0.34566  1.0000
  O   O6        1.0  0.19746  0.88304  0.34491  1.0000
  H   H37       1.0  0.22708  0.53237  0.34688  1.0000
  C   C47       1.0  0.14654  0.74921  0.26451  1.0000
  H   H38       1.0  0.15947  0.75241  0.20585  1.0000
  C   C48       1.0  0.16168  0.91540  0.34080  1.0000
  C   C49       1.0  0.14534  0.89896  0.25980  1.0000
  C   C50       1.0  0.16013  0.91055  0.16873  1.0000
  H   H39       1.0  0.18262  0.93459  0.17026  1.0000
  H   H40       1.0  0.14255  0.91277  0.12505  1.0000
  H   H41       1.0  0.16604  0.89278  0.13893  1.0000
  H   H42       1.0  0.13912  0.82049  0.40868  1.0000
  H   H43       1.0  0.19482  0.82165  0.40918  1.0000
  H   H44       1.0  0.22690  0.69778  0.34232  1.0000
  C   C51       1.0  0.19675  0.93403  0.34368  1.0000
  C   C52       1.0  0.21480  0.96900  0.34400  1.0000
  H   H45       1.0  0.19364  0.87621  0.40857  1.0000
  H   H46       1.0  0.20086  0.98009  0.34219  1.0000
  C   C53       1.0  0.16180  0.74967  0.34743  1.0000
  C   C54       1.0  0.14488  0.74853  0.42852  1.0000
  C   C55       1.0  0.15920  0.75099  0.51992  1.0000
  H   H47       1.0  0.18194  0.74989  0.51851  1.0000
  H   H48       1.0  0.14156  0.73058  0.56191  1.0000
  H   H49       1.0  0.16452  0.77421  0.55162  1.0000
  C   C56       1.0  0.14589  0.90098  0.42361  1.0000
  H   H50       1.0  0.15839  0.91110  0.48261  1.0000
  C   C57       1.0  0.25021  0.26510  0.34508  1.0000
  C   C58       1.0  0.26810  0.24710  0.34507  1.0000
  C   C59       1.0  0.25018  0.48820  0.34501  1.0000
  C   C60       1.0  0.26626  0.46890  0.34580  1.0000
  C   C61       1.0  0.24923  0.43393  0.34620  1.0000
  H   H51       1.0  0.29129  0.47992  0.34689  1.0000
  C   C62       1.0  0.26819  0.02409  0.34503  1.0000
  C   C63       1.0  0.26914  0.07836  0.34632  1.0000
  C   C64       1.0  0.25211  0.04339  0.34582  1.0000
  C   C65       1.0  0.26588  0.35357  0.34114  1.0000
  C   C66       1.0  0.26582  0.36994  0.26009  1.0000
  C   C67       1.0  0.26607  0.40032  0.26443  1.0000
  H   H52       1.0  0.26285  0.41000  0.20568  1.0000
  C   C68       1.0  0.26260  0.35511  0.16905  1.0000
  H   H53       1.0  0.26413  0.33262  0.17060  1.0000
  H   H54       1.0  0.28241  0.37268  0.12533  1.0000
  H   H55       1.0  0.23892  0.34922  0.13924  1.0000
  C   C69       1.0  0.25241  0.15859  0.34111  1.0000
  C   C70       1.0  0.25252  0.14233  0.25997  1.0000
  C   C71       1.0  0.25232  0.11196  0.26443  1.0000
  H   H56       1.0  0.25555  0.10228  0.20572  1.0000
  C   C72       1.0  0.25574  0.15715  0.16894  1.0000
  H   H57       1.0  0.25416  0.17962  0.17051  1.0000
  H   H58       1.0  0.23595  0.13956  0.12521  1.0000
  H   H59       1.0  0.27943  0.16307  0.13916  1.0000
  C   C73       1.0  0.24946  0.31852  0.34396  1.0000
  C   C74       1.0  0.26639  0.30048  0.34410  1.0000
  C   C75       1.0  0.25192  0.21171  0.34413  1.0000
  C   C76       1.0  0.26885  0.19367  0.34387  1.0000
  H   H60       1.0  0.29142  0.31441  0.34229  1.0000
  C   C77       1.0  0.26557  0.41520  0.34716  1.0000
  C   C78       1.0  0.26675  0.39946  0.42832  1.0000
  C   C79       1.0  0.26732  0.36947  0.42381  1.0000
  H   H61       1.0  0.26492  0.35700  0.48286  1.0000
  C   C80       1.0  0.26431  0.41137  0.51967  1.0000
  H   H62       1.0  0.26542  0.43521  0.51818  1.0000
  H   H63       1.0  0.28472  0.41416  0.56168  1.0000
  H   H64       1.0  0.24108  0.39350  0.55143  1.0000
  C   C81       1.0  0.25281  0.09710  0.34723  1.0000
  C   C82       1.0  0.25161  0.11283  0.42840  1.0000
  C   C83       1.0  0.25099  0.14280  0.42390  1.0000
  H   H65       1.0  0.25338  0.15529  0.48292  1.0000
  C   C84       1.0  0.25406  0.10093  0.51976  1.0000
  H   H66       1.0  0.25298  0.07711  0.51827  1.0000
  H   H67       1.0  0.23363  0.09812  0.56174  1.0000
  H   H68       1.0  0.27727  0.11883  0.55152  1.0000
  C   C85       1.0  0.25021  0.76509  0.34508  1.0000
  C   C86       1.0  0.26810  0.74709  0.34507  1.0000
  C   C87       1.0  0.25018  0.98820  0.34501  1.0000
  C   C88       1.0  0.26626  0.96890  0.34580  1.0000
  C   C89       1.0  0.24923  0.93393  0.34620  1.0000
  H   H69       1.0  0.29129  0.97992  0.34689  1.0000
  C   C90       1.0  0.26819  0.52409  0.34503  1.0000
  C   C91       1.0  0.26914  0.57836  0.34632  1.0000
  C   C92       1.0  0.25211  0.54339  0.34582  1.0000
  C   C93       1.0  0.26588  0.85357  0.34114  1.0000
  C   C94       1.0  0.26582  0.86993  0.26009  1.0000
  C   C95       1.0  0.26606  0.90032  0.26443  1.0000
  H   H70       1.0  0.26285  0.91000  0.20568  1.0000
  C   C96       1.0  0.26260  0.85511  0.16905  1.0000
  H   H71       1.0  0.26413  0.83262  0.17060  1.0000
  H   H72       1.0  0.28241  0.87268  0.12533  1.0000
  H   H73       1.0  0.23892  0.84922  0.13924  1.0000
  C   C97       1.0  0.25241  0.65859  0.34111  1.0000
  C   C98       1.0  0.25252  0.64232  0.25997  1.0000
  C   C99       1.0  0.25232  0.61196  0.26443  1.0000
  H   H74       1.0  0.25555  0.60228  0.20572  1.0000
  C   C100      1.0  0.25574  0.65714  0.16894  1.0000
  H   H75       1.0  0.25416  0.67962  0.17051  1.0000
  H   H76       1.0  0.23595  0.63956  0.12521  1.0000
  H   H77       1.0  0.27943  0.66307  0.13916  1.0000
  C   C101      1.0  0.24946  0.81852  0.34396  1.0000
  C   C102      1.0  0.26639  0.80048  0.34410  1.0000
  C   C103      1.0  0.25192  0.71171  0.34413  1.0000
  C   C104      1.0  0.26885  0.69366  0.34387  1.0000
  H   H78       1.0  0.29142  0.81441  0.34229  1.0000
  C   C105      1.0  0.26557  0.91520  0.34716  1.0000
  C   C106      1.0  0.26675  0.89946  0.42832  1.0000
  C   C107      1.0  0.26732  0.86947  0.42381  1.0000
  H   H79       1.0  0.26492  0.85700  0.48286  1.0000
  C   C108      1.0  0.26431  0.91137  0.51967  1.0000
  H   H80       1.0  0.26542  0.93521  0.51818  1.0000
  H   H81       1.0  0.28472  0.91415  0.56168  1.0000
  H   H82       1.0  0.24108  0.89350  0.55143  1.0000
  C   C109      1.0  0.25281  0.59710  0.34723  1.0000
  C   C110      1.0  0.25161  0.61283  0.42840  1.0000
  C   C111      1.0  0.25099  0.64280  0.42390  1.0000
  H   H83       1.0  0.25338  0.65529  0.48292  1.0000
  C   C112      1.0  0.25406  0.60093  0.51976  1.0000
  H   H84       1.0  0.25298  0.57711  0.51827  1.0000
  H   H85       1.0  0.23363  0.59812  0.56174  1.0000
  H   H86       1.0  0.27727  0.61883  0.55152  1.0000
  C   C113      1.0  0.49126  0.24718  0.34503  1.0000
  C   C114      1.0  0.41984  0.21158  0.34576  1.0000
  C   C115      1.0  0.43698  0.19386  0.34628  1.0000
  C   C116      1.0  0.47196  0.21180  0.34580  1.0000
  O   O7        1.0  0.38610  0.19476  0.34505  1.0000
  H   H87       1.0  0.48297  0.19779  0.34684  1.0000
  C   C117      1.0  0.30371  0.21129  0.34595  1.0000
  C   C118      1.0  0.32143  0.24616  0.34634  1.0000
  C   C119      1.0  0.30348  0.26318  0.34584  1.0000
  O   O8        1.0  0.32055  0.19439  0.34533  1.0000
  H   H88       1.0  0.31749  0.28821  0.34684  1.0000
  C   C120      1.0  0.30401  0.09550  0.34583  1.0000
  O   O9        1.0  0.32092  0.12924  0.34514  1.0000
  C   C121      1.0  0.41848  0.26290  0.34087  1.0000
  C   C122      1.0  0.40199  0.26275  0.25992  1.0000
  C   C123      1.0  0.37183  0.26296  0.26449  1.0000
  H   H89       1.0  0.35891  0.25972  0.20580  1.0000
  C   C124      1.0  0.41353  0.25949  0.16884  1.0000
  H   H90       1.0  0.43757  0.26105  0.17030  1.0000
  H   H91       1.0  0.41573  0.27927  0.12508  1.0000
  H   H92       1.0  0.39574  0.23579  0.13915  1.0000
  C   C125      1.0  0.35669  0.09687  0.34094  1.0000
  C   C126      1.0  0.37304  0.11329  0.25992  1.0000
  C   C127      1.0  0.40342  0.14344  0.26439  1.0000
  H   H93       1.0  0.41312  0.15634  0.20568  1.0000
  C   C128      1.0  0.35824  0.10171  0.16887  1.0000
  H   H94       1.0  0.33574  0.07767  0.17040  1.0000
  H   H95       1.0  0.37581  0.09946  0.12519  1.0000
  H   H96       1.0  0.35235  0.11949  0.13904  1.0000
  C   C129      1.0  0.47206  0.26337  0.34406  1.0000
  C   C130      1.0  0.43709  0.24645  0.34377  1.0000
  H   H97       1.0  0.37928  0.19179  0.40871  1.0000
  H   H98       1.0  0.48316  0.28840  0.34228  1.0000
  H   H99       1.0  0.32353  0.19058  0.40902  1.0000
  C   C131      1.0  0.30357  0.04328  0.34405  1.0000
  C   C132      1.0  0.32162  0.07826  0.34382  1.0000
  H   H100      1.0  0.32474  0.13606  0.40881  1.0000
  H   H101      1.0  0.31750  0.03219  0.34223  1.0000
  C   C133      1.0  0.35649  0.26250  0.34731  1.0000
  C   C134      1.0  0.37351  0.26371  0.42830  1.0000
  C   C135      1.0  0.40410  0.26432  0.42368  1.0000
  H   H102      1.0  0.41423  0.26197  0.48268  1.0000
  C   C136      1.0  0.35921  0.26126  0.51972  1.0000
  H   H103      1.0  0.33645  0.26232  0.51834  1.0000
  H   H104      1.0  0.37684  0.28170  0.56166  1.0000
  H   H105      1.0  0.35393  0.23806  0.55149  1.0000
  C   C137      1.0  0.41825  0.15879  0.34719  1.0000
  C   C138      1.0  0.40247  0.14186  0.42832  1.0000
  C   C139      1.0  0.37249  0.11130  0.42373  1.0000
  H   H106      1.0  0.35999  0.10120  0.48274  1.0000
  C   C140      1.0  0.41434  0.15621  0.51970  1.0000
  H   H107      1.0  0.43817  0.17894  0.51826  1.0000
  H   H108      1.0  0.41711  0.13858  0.56173  1.0000
  H   H109      1.0  0.39644  0.16154  0.55138  1.0000
  C   C141      1.0  0.49126  0.74718  0.34503  1.0000
  C   C142      1.0  0.41984  0.71158  0.34576  1.0000
  C   C143      1.0  0.43698  0.69386  0.34628  1.0000
  C   C144      1.0  0.47196  0.71180  0.34580  1.0000
  O   O10       1.0  0.38610  0.69476  0.34505  1.0000
  H   H110      1.0  0.48297  0.69779  0.34684  1.0000
  C   C145      1.0  0.30371  0.71129  0.34595  1.0000
  C   C146      1.0  0.32143  0.74616  0.34634  1.0000
  C   C147      1.0  0.30348  0.76318  0.34584  1.0000
  O   O11       1.0  0.32055  0.69439  0.34533  1.0000
  H   H111      1.0  0.31749  0.78821  0.34684  1.0000
  C   C148      1.0  0.30401  0.59550  0.34583  1.0000
  O   O12       1.0  0.32092  0.62924  0.34514  1.0000
  C   C149      1.0  0.41848  0.76290  0.34087  1.0000
  C   C150      1.0  0.40199  0.76275  0.25992  1.0000
  C   C151      1.0  0.37183  0.76296  0.26449  1.0000
  H   H112      1.0  0.35891  0.75972  0.20580  1.0000
  C   C152      1.0  0.41353  0.75949  0.16884  1.0000
  H   H113      1.0  0.43757  0.76105  0.17030  1.0000
  H   H114      1.0  0.41573  0.77927  0.12508  1.0000
  H   H115      1.0  0.39574  0.73579  0.13915  1.0000
  C   C153      1.0  0.35669  0.59687  0.34094  1.0000
  C   C154      1.0  0.37304  0.61329  0.25992  1.0000
  C   C155      1.0  0.40342  0.64344  0.26439  1.0000
  H   H116      1.0  0.41312  0.65634  0.20568  1.0000
  C   C156      1.0  0.35824  0.60171  0.16887  1.0000
  H   H117      1.0  0.33574  0.57767  0.17040  1.0000
  H   H118      1.0  0.37581  0.59946  0.12519  1.0000
  H   H119      1.0  0.35235  0.61949  0.13904  1.0000
  C   C157      1.0  0.47206  0.76337  0.34406  1.0000
  C   C158      1.0  0.43709  0.74645  0.34377  1.0000
  H   H120      1.0  0.37928  0.69179  0.40871  1.0000
  H   H121      1.0  0.48316  0.78840  0.34228  1.0000
  H   H122      1.0  0.32353  0.69058  0.40902  1.0000
  C   C159      1.0  0.30357  0.54328  0.34405  1.0000
  C   C160      1.0  0.32162  0.57825  0.34382  1.0000
  H   H123      1.0  0.32474  0.63606  0.40881  1.0000
  H   H124      1.0  0.31750  0.53219  0.34223  1.0000
  C   C161      1.0  0.35649  0.76250  0.34731  1.0000
  C   C162      1.0  0.37351  0.76371  0.42830  1.0000
  C   C163      1.0  0.40409  0.76432  0.42368  1.0000
  H   H125      1.0  0.41423  0.76196  0.48268  1.0000
  C   C164      1.0  0.35921  0.76126  0.51972  1.0000
  H   H126      1.0  0.33645  0.76232  0.51834  1.0000
  H   H127      1.0  0.37684  0.78170  0.56166  1.0000
  H   H128      1.0  0.35393  0.73806  0.55149  1.0000
  C   C165      1.0  0.41825  0.65879  0.34719  1.0000
  C   C166      1.0  0.40247  0.64186  0.42832  1.0000
  C   C167      1.0  0.37249  0.61130  0.42373  1.0000
  H   H129      1.0  0.35999  0.60120  0.48274  1.0000
  C   C168      1.0  0.41434  0.65621  0.51970  1.0000
  H   H130      1.0  0.43817  0.67894  0.51826  1.0000
  H   H131      1.0  0.41711  0.63858  0.56173  1.0000
  H   H132      1.0  0.39644  0.66154  0.55138  1.0000
  C   C169      1.0  0.52715  0.26506  0.34503  1.0000
  C   C170      1.0  0.54645  0.30044  0.34576  1.0000
  C   C171      1.0  0.58142  0.31839  0.34622  1.0000
  C   C172      1.0  0.59857  0.30067  0.34573  1.0000
  H   H133      1.0  0.53543  0.31445  0.34677  1.0000
  O   O13       1.0  0.63230  0.31750  0.34501  1.0000
  C   C173      1.0  0.99126  0.24718  0.34503  1.0000
  C   C174      1.0  0.91984  0.21158  0.34576  1.0000
  C   C175      1.0  0.93698  0.19386  0.34628  1.0000
  C   C176      1.0  0.97196  0.21180  0.34580  1.0000
  O   O14       1.0  0.88611  0.19476  0.34505  1.0000
  H   H134      1.0  0.98297  0.19779  0.34684  1.0000
  C   C177      1.0  0.75021  0.26510  0.34508  1.0000
  C   C178      1.0  0.71483  0.24901  0.34587  1.0000
  C   C179      1.0  0.69688  0.26603  0.34647  1.0000
  C   C180      1.0  0.71460  0.30090  0.34609  1.0000
  H   H135      1.0  0.70083  0.22398  0.34688  1.0000
  O   O15       1.0  0.69776  0.31779  0.34550  1.0000
  C   C181      1.0  0.76810  0.24710  0.34507  1.0000
  C   C182      1.0  0.80371  0.21129  0.34595  1.0000
  C   C183      1.0  0.82143  0.24616  0.34634  1.0000
  C   C184      1.0  0.80348  0.26318  0.34584  1.0000
  O   O16       1.0  0.82055  0.19439  0.34533  1.0000
  H   H136      1.0  0.81749  0.28821  0.34684  1.0000
  C   C185      1.0  0.75018  0.48820  0.34501  1.0000
  C   C186      1.0  0.76626  0.46890  0.34580  1.0000
  C   C187      1.0  0.74923  0.43393  0.34620  1.0000
  C   C188      1.0  0.71437  0.41678  0.34566  1.0000
  H   H137      1.0  0.79129  0.47992  0.34689  1.0000
  O   O17       1.0  0.69746  0.38304  0.34491  1.0000
  C   C189      1.0  0.76818  0.02409  0.34503  1.0000
  C   C190      1.0  0.80401  0.09550  0.34583  1.0000
  C   C191      1.0  0.76914  0.07836  0.34632  1.0000
  C   C192      1.0  0.75211  0.04339  0.34582  1.0000
  O   O18       1.0  0.82092  0.12924  0.34514  1.0000
  H   H138      1.0  0.72708  0.03238  0.34688  1.0000
  C   C193      1.0  0.59994  0.24936  0.34095  1.0000
  C   C194      1.0  0.61641  0.24946  0.25997  1.0000
  C   C195      1.0  0.64654  0.24921  0.26451  1.0000
  H   H139      1.0  0.65947  0.25242  0.20585  1.0000
  C   C196      1.0  0.60487  0.25271  0.16889  1.0000
  H   H140      1.0  0.58083  0.25118  0.17035  1.0000
  H   H141      1.0  0.60263  0.23290  0.12517  1.0000
  H   H142      1.0  0.62267  0.27638  0.13914  1.0000
  C   C197      1.0  0.76588  0.35357  0.34114  1.0000
  C   C198      1.0  0.76582  0.36994  0.26009  1.0000
  C   C199      1.0  0.76606  0.40032  0.26443  1.0000
  H   H143      1.0  0.76285  0.41000  0.20568  1.0000
  C   C200      1.0  0.76260  0.35511  0.16905  1.0000
  H   H144      1.0  0.76413  0.33262  0.17060  1.0000
  H   H145      1.0  0.78241  0.37268  0.12533  1.0000
  H   H146      1.0  0.73892  0.34922  0.13924  1.0000
  C   C201      1.0  0.66168  0.41541  0.34080  1.0000
  C   C202      1.0  0.64534  0.39896  0.25980  1.0000
  C   C203      1.0  0.61498  0.36880  0.26428  1.0000
  H   H147      1.0  0.60528  0.35589  0.20559  1.0000
  C   C204      1.0  0.66013  0.41055  0.16873  1.0000
  H   H148      1.0  0.68262  0.43459  0.17026  1.0000
  H   H149      1.0  0.64255  0.41277  0.12505  1.0000
  H   H150      1.0  0.66604  0.39278  0.13893  1.0000
  C   C205      1.0  0.91848  0.26290  0.34087  1.0000
  C   C206      1.0  0.90199  0.26275  0.25992  1.0000
  C   C207      1.0  0.87183  0.26296  0.26449  1.0000
  H   H151      1.0  0.85891  0.25972  0.20580  1.0000
  C   C208      1.0  0.91353  0.25949  0.16884  1.0000
  H   H152      1.0  0.93757  0.26105  0.17030  1.0000
  H   H153      1.0  0.91573  0.27927  0.12508  1.0000
  H   H154      1.0  0.89574  0.23579  0.13915  1.0000
  C   C209      1.0  0.75241  0.15859  0.34111  1.0000
  C   C210      1.0  0.75252  0.14233  0.25997  1.0000
  C   C211      1.0  0.75232  0.11196  0.26443  1.0000
  H   H155      1.0  0.75555  0.10228  0.20572  1.0000
  C   C212      1.0  0.75574  0.15715  0.16894  1.0000
  H   H156      1.0  0.75416  0.17962  0.17051  1.0000
  H   H157      1.0  0.73595  0.13956  0.12521  1.0000
  H   H158      1.0  0.77943  0.16307  0.13916  1.0000
  C   C213      1.0  0.85669  0.09687  0.34094  1.0000
  C   C214      1.0  0.87304  0.11329  0.25992  1.0000
  C   C215      1.0  0.90341  0.14344  0.26439  1.0000
  H   H159      1.0  0.91312  0.15634  0.20568  1.0000
  C   C216      1.0  0.85824  0.10171  0.16887  1.0000
  H   H160      1.0  0.83574  0.07767  0.17040  1.0000
  H   H161      1.0  0.87581  0.09946  0.12519  1.0000
  H   H162      1.0  0.85235  0.11949  0.13904  1.0000
  C   C217      1.0  0.58132  0.26580  0.34378  1.0000
  C   C218      1.0  0.54635  0.24888  0.34410  1.0000
  C   C219      1.0  0.97206  0.26337  0.34406  1.0000
  C   C220      1.0  0.93709  0.24645  0.34377  1.0000
  H   H163      1.0  0.63912  0.32049  0.40868  1.0000
  H   H164      1.0  0.87928  0.19179  0.40871  1.0000
  H   H165      1.0  0.53525  0.22385  0.34234  1.0000
  H   H166      1.0  0.98316  0.28840  0.34228  1.0000
  C   C221      1.0  0.74946  0.31852  0.34396  1.0000
  C   C222      1.0  0.76639  0.30048  0.34410  1.0000
  C   C223      1.0  0.75192  0.21171  0.34413  1.0000
  C   C224      1.0  0.76885  0.19367  0.34387  1.0000
  H   H167      1.0  0.69482  0.32165  0.40918  1.0000
  H   H168      1.0  0.82353  0.19058  0.40902  1.0000
  H   H169      1.0  0.79142  0.31441  0.34229  1.0000
  H   H170      1.0  0.72689  0.19778  0.34232  1.0000
  C   C225      1.0  0.69675  0.43403  0.34368  1.0000
  C   C226      1.0  0.71480  0.46900  0.34400  1.0000
  C   C227      1.0  0.80357  0.04328  0.34405  1.0000
  C   C228      1.0  0.82162  0.07826  0.34382  1.0000
  H   H171      1.0  0.69364  0.37621  0.40857  1.0000
  H   H172      1.0  0.82474  0.13606  0.40881  1.0000
  H   H173      1.0  0.70086  0.48010  0.34219  1.0000
  H   H174      1.0  0.81750  0.03219  0.34223  1.0000
  C   C229      1.0  0.66180  0.24967  0.34743  1.0000
  C   C230      1.0  0.64488  0.24853  0.42852  1.0000
  C   C231      1.0  0.61432  0.24796  0.42381  1.0000
  H   H175      1.0  0.60420  0.25035  0.48278  1.0000
  C   C232      1.0  0.65920  0.25099  0.51992  1.0000
  H   H176      1.0  0.68194  0.24989  0.51851  1.0000
  H   H177      1.0  0.64156  0.23058  0.56191  1.0000
  H   H178      1.0  0.66452  0.27421  0.55162  1.0000
  C   C233      1.0  0.76557  0.41520  0.34716  1.0000
  C   C234      1.0  0.76675  0.39946  0.42832  1.0000
  C   C235      1.0  0.76732  0.36947  0.42381  1.0000
  H   H179      1.0  0.76492  0.35700  0.48286  1.0000
  C   C236      1.0  0.76431  0.41137  0.51967  1.0000
  H   H180      1.0  0.76542  0.43521  0.51818  1.0000
  H   H181      1.0  0.78472  0.41416  0.56168  1.0000
  H   H182      1.0  0.74108  0.39350  0.55143  1.0000
  C   C237      1.0  0.60015  0.35346  0.34711  1.0000
  C   C238      1.0  0.61592  0.37040  0.42821  1.0000
  C   C239      1.0  0.64589  0.40098  0.42361  1.0000
  H   H183      1.0  0.65839  0.41110  0.48261  1.0000
  C   C240      1.0  0.60406  0.35606  0.51961  1.0000
  H   H184      1.0  0.58024  0.33332  0.51820  1.0000
  H   H185      1.0  0.60127  0.37369  0.56162  1.0000
  H   H186      1.0  0.62198  0.35076  0.55130  1.0000
  C   C241      1.0  0.85649  0.26250  0.34731  1.0000
  C   C242      1.0  0.87351  0.26371  0.42830  1.0000
  C   C243      1.0  0.90409  0.26432  0.42368  1.0000
  H   H187      1.0  0.91423  0.26197  0.48268  1.0000
  C   C244      1.0  0.85921  0.26126  0.51972  1.0000
  H   H188      1.0  0.83645  0.26232  0.51834  1.0000
  H   H189      1.0  0.87684  0.28170  0.56166  1.0000
  H   H190      1.0  0.85393  0.23806  0.55149  1.0000
  C   C245      1.0  0.75281  0.09710  0.34723  1.0000
  C   C246      1.0  0.75161  0.11283  0.42840  1.0000
  C   C247      1.0  0.75099  0.14280  0.42390  1.0000
  H   H191      1.0  0.75338  0.15529  0.48292  1.0000
  C   C248      1.0  0.75406  0.10093  0.51976  1.0000
  H   H192      1.0  0.75298  0.07711  0.51827  1.0000
  H   H193      1.0  0.73363  0.09812  0.56174  1.0000
  H   H194      1.0  0.77727  0.11883  0.55152  1.0000
  C   C249      1.0  0.91825  0.15879  0.34719  1.0000
  C   C250      1.0  0.90247  0.14186  0.42832  1.0000
  C   C251      1.0  0.87249  0.11130  0.42373  1.0000
  H   H195      1.0  0.85999  0.10120  0.48274  1.0000
  C   C252      1.0  0.91434  0.15621  0.51970  1.0000
  H   H196      1.0  0.93817  0.17894  0.51826  1.0000
  H   H197      1.0  0.91711  0.13858  0.56173  1.0000
  H   H198      1.0  0.89644  0.16154  0.55138  1.0000
  C   C253      1.0  0.52715  0.76506  0.34503  1.0000
  C   C254      1.0  0.54645  0.80044  0.34576  1.0000
  C   C255      1.0  0.58142  0.81839  0.34622  1.0000
  C   C256      1.0  0.59857  0.80066  0.34573  1.0000
  H   H199      1.0  0.53543  0.81445  0.34677  1.0000
  O   O19       1.0  0.63230  0.81749  0.34501  1.0000
  C   C257      1.0  0.99126  0.74718  0.34503  1.0000
  C   C258      1.0  0.91984  0.71158  0.34576  1.0000
  C   C259      1.0  0.93698  0.69386  0.34628  1.0000
  C   C260      1.0  0.97196  0.71180  0.34580  1.0000
  O   O20       1.0  0.88610  0.69476  0.34505  1.0000
  H   H200      1.0  0.98297  0.69779  0.34684  1.0000
  C   C261      1.0  0.75021  0.76509  0.34508  1.0000
  C   C262      1.0  0.71483  0.74901  0.34587  1.0000
  C   C263      1.0  0.69688  0.76603  0.34647  1.0000
  C   C264      1.0  0.71460  0.80089  0.34609  1.0000
  H   H201      1.0  0.70083  0.72398  0.34688  1.0000
  O   O21       1.0  0.69776  0.81779  0.34550  1.0000
  C   C265      1.0  0.76810  0.74709  0.34507  1.0000
  C   C266      1.0  0.80371  0.71129  0.34595  1.0000
  C   C267      1.0  0.82143  0.74616  0.34634  1.0000
  C   C268      1.0  0.80348  0.76318  0.34584  1.0000
  O   O22       1.0  0.82055  0.69439  0.34533  1.0000
  H   H202      1.0  0.81749  0.78821  0.34684  1.0000
  C   C269      1.0  0.75018  0.98820  0.34501  1.0000
  C   C270      1.0  0.76626  0.96890  0.34580  1.0000
  C   C271      1.0  0.74923  0.93393  0.34620  1.0000
  C   C272      1.0  0.71437  0.91678  0.34566  1.0000
  H   H203      1.0  0.79128  0.97992  0.34689  1.0000
  O   O23       1.0  0.69746  0.88304  0.34491  1.0000
  C   C273      1.0  0.76819  0.52409  0.34503  1.0000
  C   C274      1.0  0.80401  0.59550  0.34583  1.0000
  C   C275      1.0  0.76914  0.57836  0.34632  1.0000
  C   C276      1.0  0.75211  0.54339  0.34582  1.0000
  O   O24       1.0  0.82092  0.62924  0.34514  1.0000
  H   H204      1.0  0.72708  0.53237  0.34688  1.0000
  C   C277      1.0  0.59994  0.74936  0.34095  1.0000
  C   C278      1.0  0.61640  0.74945  0.25997  1.0000
  C   C279      1.0  0.64654  0.74921  0.26451  1.0000
  H   H205      1.0  0.65947  0.75241  0.20585  1.0000
  C   C280      1.0  0.60486  0.75270  0.16889  1.0000
  H   H206      1.0  0.58083  0.75118  0.17035  1.0000
  H   H207      1.0  0.60263  0.73290  0.12517  1.0000
  H   H208      1.0  0.62267  0.77638  0.13914  1.0000
  C   C281      1.0  0.76588  0.85357  0.34114  1.0000
  C   C282      1.0  0.76582  0.86993  0.26009  1.0000
  C   C283      1.0  0.76606  0.90032  0.26443  1.0000
  H   H209      1.0  0.76285  0.91000  0.20568  1.0000
  C   C284      1.0  0.76259  0.85511  0.16905  1.0000
  H   H210      1.0  0.76413  0.83262  0.17060  1.0000
  H   H211      1.0  0.78241  0.87268  0.12533  1.0000
  H   H212      1.0  0.73892  0.84922  0.13924  1.0000
  C   C285      1.0  0.66168  0.91540  0.34080  1.0000
  C   C286      1.0  0.64534  0.89896  0.25980  1.0000
  C   C287      1.0  0.61497  0.86880  0.26428  1.0000
  H   H213      1.0  0.60528  0.85589  0.20559  1.0000
  C   C288      1.0  0.66013  0.91055  0.16873  1.0000
  H   H214      1.0  0.68262  0.93459  0.17026  1.0000
  H   H215      1.0  0.64255  0.91277  0.12505  1.0000
  H   H216      1.0  0.66604  0.89278  0.13893  1.0000
  C   C289      1.0  0.91848  0.76290  0.34087  1.0000
  C   C290      1.0  0.90199  0.76275  0.25992  1.0000
  C   C291      1.0  0.87183  0.76296  0.26449  1.0000
  H   H217      1.0  0.85891  0.75972  0.20580  1.0000
  C   C292      1.0  0.91353  0.75949  0.16884  1.0000
  H   H218      1.0  0.93758  0.76105  0.17030  1.0000
  H   H219      1.0  0.91573  0.77927  0.12508  1.0000
  H   H220      1.0  0.89574  0.73579  0.13915  1.0000
  C   C293      1.0  0.75241  0.65859  0.34111  1.0000
  C   C294      1.0  0.75252  0.64232  0.25997  1.0000
  C   C295      1.0  0.75232  0.61196  0.26443  1.0000
  H   H221      1.0  0.75555  0.60228  0.20572  1.0000
  C   C296      1.0  0.75574  0.65714  0.16894  1.0000
  H   H222      1.0  0.75416  0.67962  0.17051  1.0000
  H   H223      1.0  0.73595  0.63956  0.12521  1.0000
  H   H224      1.0  0.77943  0.66307  0.13916  1.0000
  C   C297      1.0  0.85668  0.59687  0.34094  1.0000
  C   C298      1.0  0.87304  0.61329  0.25992  1.0000
  C   C299      1.0  0.90342  0.64344  0.26439  1.0000
  H   H225      1.0  0.91312  0.65634  0.20568  1.0000
  C   C300      1.0  0.85824  0.60171  0.16887  1.0000
  H   H226      1.0  0.83573  0.57767  0.17040  1.0000
  H   H227      1.0  0.87581  0.59946  0.12519  1.0000
  H   H228      1.0  0.85235  0.61949  0.13904  1.0000
  C   C301      1.0  0.58132  0.76580  0.34378  1.0000
  C   C302      1.0  0.54635  0.74888  0.34410  1.0000
  C   C303      1.0  0.97206  0.76337  0.34406  1.0000
  C   C304      1.0  0.93709  0.74645  0.34377  1.0000
  H   H229      1.0  0.63912  0.82049  0.40868  1.0000
  H   H230      1.0  0.87928  0.69179  0.40871  1.0000
  H   H231      1.0  0.53525  0.72385  0.34234  1.0000
  H   H232      1.0  0.98316  0.78840  0.34228  1.0000
  C   C305      1.0  0.74946  0.81852  0.34396  1.0000
  C   C306      1.0  0.76639  0.80048  0.34410  1.0000
  C   C307      1.0  0.75192  0.71171  0.34413  1.0000
  C   C308      1.0  0.76885  0.69366  0.34387  1.0000
  H   H233      1.0  0.69482  0.82165  0.40918  1.0000
  H   H234      1.0  0.82353  0.69058  0.40902  1.0000
  H   H235      1.0  0.79142  0.81441  0.34229  1.0000
  H   H236      1.0  0.72689  0.69778  0.34232  1.0000
  C   C309      1.0  0.69675  0.93403  0.34368  1.0000
  C   C310      1.0  0.71479  0.96900  0.34400  1.0000
  C   C311      1.0  0.80357  0.54328  0.34405  1.0000
  C   C312      1.0  0.82162  0.57825  0.34382  1.0000
  H   H237      1.0  0.69364  0.87621  0.40857  1.0000
  H   H238      1.0  0.82474  0.63606  0.40881  1.0000
  H   H239      1.0  0.70086  0.98009  0.34219  1.0000
  H   H240      1.0  0.81750  0.53219  0.34223  1.0000
  C   C313      1.0  0.66180  0.74967  0.34743  1.0000
  C   C314      1.0  0.64488  0.74853  0.42852  1.0000
  C   C315      1.0  0.61432  0.74796  0.42381  1.0000
  H   H241      1.0  0.60420  0.75035  0.48278  1.0000
  C   C316      1.0  0.65920  0.75099  0.51992  1.0000
  H   H242      1.0  0.68194  0.74989  0.51851  1.0000
  H   H243      1.0  0.64156  0.73058  0.56191  1.0000
  H   H244      1.0  0.66453  0.77421  0.55162  1.0000
  C   C317      1.0  0.76557  0.91520  0.34716  1.0000
  C   C318      1.0  0.76675  0.89946  0.42832  1.0000
  C   C319      1.0  0.76731  0.86947  0.42381  1.0000
  H   H245      1.0  0.76492  0.85700  0.48286  1.0000
  C   C320      1.0  0.76431  0.91137  0.51967  1.0000
  H   H246      1.0  0.76542  0.93521  0.51818  1.0000
  H   H247      1.0  0.78472  0.91415  0.56168  1.0000
  H   H248      1.0  0.74108  0.89350  0.55143  1.0000
  C   C321      1.0  0.60015  0.85345  0.34711  1.0000
  C   C322      1.0  0.61592  0.87040  0.42821  1.0000
  C   C323      1.0  0.64589  0.90098  0.42361  1.0000
  H   H249      1.0  0.65838  0.91110  0.48261  1.0000
  C   C324      1.0  0.60406  0.85606  0.51961  1.0000
  H   H250      1.0  0.58024  0.83332  0.51820  1.0000
  H   H251      1.0  0.60127  0.87369  0.56162  1.0000
  H   H252      1.0  0.62198  0.85076  0.55130  1.0000
  C   C325      1.0  0.85649  0.76250  0.34731  1.0000
  C   C326      1.0  0.87351  0.76371  0.42830  1.0000
  C   C327      1.0  0.90409  0.76432  0.42368  1.0000
  H   H253      1.0  0.91423  0.76196  0.48268  1.0000
  C   C328      1.0  0.85921  0.76126  0.51972  1.0000
  H   H254      1.0  0.83645  0.76232  0.51834  1.0000
  H   H255      1.0  0.87684  0.78170  0.56166  1.0000
  H   H256      1.0  0.85393  0.73806  0.55149  1.0000
  C   C329      1.0  0.75281  0.59710  0.34723  1.0000
  C   C330      1.0  0.75161  0.61283  0.42840  1.0000
  C   C331      1.0  0.75099  0.64280  0.42390  1.0000
  H   H257      1.0  0.75338  0.65529  0.48292  1.0000
  C   C332      1.0  0.75406  0.60093  0.51976  1.0000
  H   H258      1.0  0.75298  0.57711  0.51827  1.0000
  H   H259      1.0  0.73363  0.59812  0.56174  1.0000
  H   H260      1.0  0.77727  0.61883  0.55152  1.0000
  C   C333      1.0  0.91825  0.65879  0.34719  1.0000
  C   C334      1.0  0.90247  0.64186  0.42832  1.0000
  C   C335      1.0  0.87249  0.61130  0.42373  1.0000
  H   H261      1.0  0.85999  0.60120  0.48274  1.0000
  C   C336      1.0  0.91433  0.65621  0.51970  1.0000
  H   H262      1.0  0.93817  0.67894  0.51826  1.0000
  H   H263      1.0  0.91711  0.63858  0.56173  1.0000
  H   H264      1.0  0.89644  0.66154  0.55138  1.0000
