data_image0
_chemical_formula_structural       C3HCH3C3HCH3C3HCH3C3HCH3C3HCH3C3HCH3C3HCH3C3HCH3C3HCH3C3HCH3C3HCH3C3HCH3C3HCH3C3HCH3C3HCH3C3HCH3C3HCH3C3HCH3C6H3C6H3C6H3C6H3C6H3C6H3C6H3C6H3C6H3C6H3C6H3C6H3C3HCH3C3HCH3C3HCH3C3HCH3C3HCH3C3HCH3C3HCH3C3HCH3C3HCH3C3HCH3C3HCH3C3HCH3C3HCH3C3HCH3C3HCH3C3HCH3C3HCH3C3HCH3C3HCH3C3HCH3C3HCH3C3HCH3C3HCH3C3HCH3C3HCH3C3HCH3C3HCH3C3HCH3C3HCH3C3HCH3C3HCH3C3HCH3C3HCH3C3HCH3C3HCH3C3HCH3C6H3C6H3C6H3C6H3C6H3C6H3C6H3C6H3C6H3C6H3C6H3C6H3C3HCH3C3HCH3C3HCH3C3HCH3C3HCH3C3HCH3C3HCH3C3HCH3C3HCH3C3HCH3C3HCH3C3HCH3C3HCH3C3HCH3C3HCH3C3HCH3C3HCH3C3HCH3
_chemical_formula_sum              "C432 H360"
_cell_length_a       42.9886
_cell_length_b       55.733
_cell_length_c       14.8756
_cell_angle_alpha    90
_cell_angle_beta     90
_cell_angle_gamma    90

_space_group_name_H-M_alt    "P 1"
_space_group_IT_number       1

loop_
  _space_group_symop_operation_xyz
  'x, y, z'

loop_
  _atom_site_type_symbol
  _atom_site_label
  _atom_site_symmetry_multiplicity
  _atom_site_fract_x
  _atom_site_fract_y
  _atom_site_fract_z
  _atom_site_occupancy
  C   C1        1.0  0.28683  0.17217  0.32461  1.0000
  C   C2        1.0  0.23607  0.18486  0.26259  1.0000
  C   C3        1.0  0.26877  0.18632  0.26576  1.0000
  H   H1        1.0  0.27988  0.19720  0.22037  1.0000
  C   C4        1.0  0.22077  0.19778  0.18643  1.0000
  H   H2        1.0  0.19637  0.19298  0.17822  1.0000
  H   H3        1.0  0.23227  0.19326  0.12316  1.0000
  H   H4        1.0  0.22246  0.21712  0.19676  1.0000
  C   C5        1.0  0.22157  0.83619  0.32383  1.0000
  C   C6        1.0  0.27224  0.82335  0.26161  1.0000
  C   C7        1.0  0.23953  0.82196  0.26503  1.0000
  H   H5        1.0  0.22835  0.81105  0.21990  1.0000
  C   C8        1.0  0.28744  0.81029  0.18567  1.0000
  H   H6        1.0  0.31189  0.81498  0.17737  1.0000
  H   H7        1.0  0.27597  0.81478  0.12234  1.0000
  H   H8        1.0  0.28563  0.79096  0.19632  1.0000
  C   C9        1.0  0.03673  0.67195  0.32268  1.0000
  C   C10       1.0  0.48585  0.68473  0.26156  1.0000
  C   C11       1.0  0.01857  0.68607  0.26396  1.0000
  H   H9        1.0  0.02961  0.69691  0.21833  1.0000
  C   C12       1.0  0.47040  0.69781  0.18604  1.0000
  H   H10       1.0  0.44582  0.69338  0.17893  1.0000
  H   H11       1.0  0.48146  0.69310  0.12231  1.0000
  H   H12       1.0  0.47260  0.71713  0.19613  1.0000
  C   C13       1.0  0.47165  0.33642  0.32212  1.0000
  C   C14       1.0  0.02243  0.32349  0.26078  1.0000
  C   C15       1.0  0.48971  0.32222  0.26343  1.0000
  H   H13       1.0  0.47860  0.31134  0.21804  1.0000
  C   C16       1.0  0.03779  0.31029  0.18540  1.0000
  H   H14       1.0  0.06238  0.31463  0.17814  1.0000
  H   H15       1.0  0.02671  0.31495  0.12166  1.0000
  H   H16       1.0  0.03551  0.29098  0.19584  1.0000
  C   C17       1.0  0.06286  0.12635  0.27393  1.0000
  C   C18       1.0  0.08723  0.14335  0.27445  1.0000
  C   C19       1.0  0.11014  0.14240  0.34403  1.0000
  H   H17       1.0  0.04635  0.12756  0.22452  1.0000
  C   C20       1.0  0.08897  0.16050  0.19722  1.0000
  H   H18       1.0  0.07392  0.15533  0.14131  1.0000
  H   H19       1.0  0.11267  0.16121  0.17097  1.0000
  H   H20       1.0  0.08194  0.17841  0.21831  1.0000
  C   C21       1.0  0.44629  0.88126  0.27489  1.0000
  C   C22       1.0  0.42198  0.86420  0.27549  1.0000
  C   C23       1.0  0.39838  0.86569  0.34302  1.0000
  H   H21       1.0  0.46320  0.87969  0.22677  1.0000
  C   C24       1.0  0.42115  0.84644  0.20007  1.0000
  H   H22       1.0  0.43590  0.85170  0.14361  1.0000
  H   H23       1.0  0.39754  0.84474  0.17382  1.0000
  H   H24       1.0  0.42919  0.82895  0.22312  1.0000
  C   C25       1.0  0.44687  0.10759  0.33492  1.0000
  C   C26       1.0  0.41992  0.14287  0.26831  1.0000
  C   C27       1.0  0.44509  0.12663  0.27226  1.0000
  H   H25       1.0  0.46214  0.12804  0.22436  1.0000
  C   C28       1.0  0.41950  0.15915  0.18840  1.0000
  H   H26       1.0  0.39691  0.16748  0.17713  1.0000
  H   H27       1.0  0.42481  0.14910  0.12721  1.0000
  H   H28       1.0  0.43695  0.17320  0.19671  1.0000
  C   C29       1.0  0.06171  0.90099  0.33548  1.0000
  C   C30       1.0  0.08871  0.86580  0.26844  1.0000
  C   C31       1.0  0.06355  0.88205  0.27245  1.0000
  H   H29       1.0  0.04652  0.88067  0.22449  1.0000
  C   C32       1.0  0.08915  0.84956  0.18842  1.0000
  H   H30       1.0  0.11172  0.84118  0.17728  1.0000
  H   H31       1.0  0.08394  0.85965  0.12728  1.0000
  H   H32       1.0  0.07163  0.83555  0.19646  1.0000
  C   C33       1.0  0.31254  0.62664  0.27509  1.0000
  C   C34       1.0  0.33688  0.64366  0.27581  1.0000
  C   C35       1.0  0.36004  0.64247  0.34467  1.0000
  H   H33       1.0  0.29588  0.62801  0.22615  1.0000
  C   C36       1.0  0.33831  0.66108  0.19936  1.0000
  H   H34       1.0  0.32322  0.65600  0.14343  1.0000
  H   H35       1.0  0.36195  0.66203  0.17279  1.0000
  H   H36       1.0  0.33113  0.67887  0.22144  1.0000
  C   C37       1.0  0.19646  0.38111  0.27587  1.0000
  C   C38       1.0  0.17217  0.36405  0.27657  1.0000
  C   C39       1.0  0.14846  0.36563  0.34374  1.0000
  H   H37       1.0  0.21344  0.37947  0.22799  1.0000
  C   C40       1.0  0.17150  0.34615  0.20161  1.0000
  H   H38       1.0  0.18623  0.35138  0.14506  1.0000
  H   H39       1.0  0.14792  0.34428  0.17530  1.0000
  H   H40       1.0  0.17967  0.32875  0.22515  1.0000
  C   C41       1.0  0.19676  0.60761  0.33622  1.0000
  C   C42       1.0  0.16988  0.64304  0.27039  1.0000
  C   C43       1.0  0.19499  0.62674  0.27392  1.0000
  H   H41       1.0  0.21204  0.62822  0.22607  1.0000
  C   C44       1.0  0.16969  0.65958  0.19115  1.0000
  H   H42       1.0  0.14737  0.66839  0.18056  1.0000
  H   H43       1.0  0.17457  0.64960  0.12951  1.0000
  H   H44       1.0  0.18758  0.67329  0.19964  1.0000
  C   C45       1.0  0.31178  0.40096  0.33668  1.0000
  C   C46       1.0  0.33869  0.36559  0.27056  1.0000
  C   C47       1.0  0.31359  0.38190  0.27413  1.0000
  H   H45       1.0  0.29654  0.38043  0.22627  1.0000
  C   C48       1.0  0.33889  0.34907  0.19127  1.0000
  H   H46       1.0  0.36120  0.34024  0.18075  1.0000
  H   H47       1.0  0.33407  0.35907  0.12965  1.0000
  H   H48       1.0  0.32096  0.33538  0.19962  1.0000
  C   C49       1.0  0.12232  0.27924  0.36076  1.0000
  C   C50       1.0  0.13242  0.24186  0.27656  1.0000
  C   C51       1.0  0.12575  0.26674  0.27902  1.0000
  H   H49       1.0  0.12309  0.27596  0.21986  1.0000
  C   C52       1.0  0.13546  0.23083  0.18561  1.0000
  H   H50       1.0  0.13942  0.21153  0.18706  1.0000
  H   H51       1.0  0.15490  0.23907  0.14988  1.0000
  H   H52       1.0  0.11418  0.23390  0.14718  1.0000
  C   C53       1.0  0.38585  0.72889  0.36089  1.0000
  C   C54       1.0  0.37611  0.76634  0.27674  1.0000
  C   C55       1.0  0.38282  0.74147  0.27918  1.0000
  H   H53       1.0  0.38579  0.73230  0.22002  1.0000
  C   C56       1.0  0.37343  0.77744  0.18579  1.0000
  H   H54       1.0  0.36931  0.79671  0.18727  1.0000
  H   H55       1.0  0.35423  0.76914  0.14918  1.0000
  H   H56       1.0  0.39491  0.77448  0.14820  1.0000
  C   C57       1.0  0.38566  0.26617  0.25538  1.0000
  C   C58       1.0  0.37910  0.24127  0.25438  1.0000
  C   C59       1.0  0.37306  0.22917  0.33716  1.0000
  H   H57       1.0  0.39073  0.27483  0.19643  1.0000
  C   C60       1.0  0.37892  0.22843  0.16645  1.0000
  H   H58       1.0  0.38393  0.24023  0.10966  1.0000
  H   H59       1.0  0.35613  0.22037  0.15479  1.0000
  H   H60       1.0  0.39649  0.21433  0.16703  1.0000
  C   C61       1.0  0.12244  0.74241  0.25530  1.0000
  C   C62       1.0  0.12901  0.76731  0.25439  1.0000
  C   C63       1.0  0.13514  0.77938  0.33719  1.0000
  H   H61       1.0  0.11733  0.73377  0.19633  1.0000
  C   C64       1.0  0.12912  0.78018  0.16653  1.0000
  H   H62       1.0  0.12404  0.76841  0.10971  1.0000
  H   H63       1.0  0.15190  0.78823  0.15472  1.0000
  H   H64       1.0  0.11156  0.79430  0.16734  1.0000
  C   C65       1.0  0.00371  0.99136  0.29541  1.0000
  C   C66       1.0  0.00335  0.01681  0.29367  1.0000
  C   C67       1.0  0.00363  0.02998  0.37619  1.0000
  H   H65       1.0  0.00348  0.98203  0.23605  1.0000
  C   C68       1.0  0.00277  0.02910  0.20453  1.0000
  H   H66       1.0  0.00272  0.01657  0.14806  1.0000
  H   H67       1.0  0.02324  0.04053  0.19748  1.0000
  H   H68       1.0  0.48192  0.04016  0.19900  1.0000
  C   C69       1.0  0.25366  0.49135  0.29559  1.0000
  C   C70       1.0  0.25328  0.51681  0.29383  1.0000
  C   C71       1.0  0.25359  0.52998  0.37634  1.0000
  H   H69       1.0  0.25340  0.48202  0.23625  1.0000
  C   C72       1.0  0.25262  0.52909  0.20470  1.0000
  H   H70       1.0  0.25252  0.51657  0.14824  1.0000
  H   H71       1.0  0.27308  0.54052  0.19750  1.0000
  H   H72       1.0  0.23176  0.54015  0.19931  1.0000
  C   C73       1.0  0.14498  0.20438  0.35864  1.0000
  C   C74       1.0  0.17681  0.19871  0.35141  1.0000
  C   C75       1.0  0.18755  0.17477  0.34200  1.0000
  C   C76       1.0  0.16498  0.15621  0.34369  1.0000
  C   C77       1.0  0.13267  0.16108  0.35094  1.0000
  C   C78       1.0  0.12323  0.18542  0.35819  1.0000
  H   H73       1.0  0.17181  0.13900  0.33039  1.0000
  H   H74       1.0  0.10010  0.18948  0.36438  1.0000
  H   H75       1.0  0.19256  0.21252  0.35240  1.0000
  C   C79       1.0  0.36323  0.80377  0.35871  1.0000
  C   C80       1.0  0.33144  0.80949  0.35076  1.0000
  C   C81       1.0  0.32082  0.83344  0.34070  1.0000
  C   C82       1.0  0.34346  0.85195  0.34218  1.0000
  C   C83       1.0  0.37575  0.84705  0.35010  1.0000
  C   C84       1.0  0.38504  0.82269  0.35838  1.0000
  H   H76       1.0  0.33669  0.86912  0.32789  1.0000
  H   H77       1.0  0.40812  0.81858  0.36542  1.0000
  H   H78       1.0  0.31565  0.79571  0.35178  1.0000
  C   C85       1.0  0.36321  0.20467  0.33617  1.0000
  C   C86       1.0  0.33124  0.19967  0.32892  1.0000
  C   C87       1.0  0.31948  0.17594  0.33148  1.0000
  C   C88       1.0  0.34118  0.15690  0.34111  1.0000
  C   C89       1.0  0.37384  0.16093  0.34110  1.0000
  C   C90       1.0  0.38416  0.18521  0.34130  1.0000
  H   H79       1.0  0.33318  0.13973  0.33446  1.0000
  H   H80       1.0  0.40747  0.18888  0.34516  1.0000
  H   H81       1.0  0.31611  0.21388  0.32662  1.0000
  C   C91       1.0  0.14508  0.80386  0.33623  1.0000
  C   C92       1.0  0.17706  0.80878  0.32867  1.0000
  C   C93       1.0  0.18892  0.83249  0.33108  1.0000
  C   C94       1.0  0.16729  0.85157  0.34092  1.0000
  C   C95       1.0  0.13463  0.84761  0.34143  1.0000
  C   C96       1.0  0.12421  0.82336  0.34161  1.0000
  H   H82       1.0  0.17538  0.86872  0.33433  1.0000
  H   H83       1.0  0.10089  0.81975  0.34561  1.0000
  H   H84       1.0  0.19213  0.79454  0.32621  1.0000
  C   C97       1.0  0.39513  0.70438  0.36056  1.0000
  C   C98       1.0  0.42690  0.69867  0.35227  1.0000
  C   C99       1.0  0.43752  0.67472  0.34207  1.0000
  C   C100      1.0  0.41490  0.65620  0.34378  1.0000
  C   C101      1.0  0.38262  0.66112  0.35174  1.0000
  C   C102      1.0  0.37330  0.68547  0.35989  1.0000
  H   H85       1.0  0.42168  0.63901  0.32975  1.0000
  H   H86       1.0  0.35020  0.68957  0.36661  1.0000
  H   H87       1.0  0.44271  0.71245  0.35307  1.0000
  C   C103      1.0  0.11311  0.30377  0.36029  1.0000
  C   C104      1.0  0.08137  0.30952  0.35158  1.0000
  C   C105      1.0  0.07085  0.33349  0.34091  1.0000
  C   C106      1.0  0.09354  0.35196  0.34224  1.0000
  C   C107      1.0  0.12580  0.34702  0.35088  1.0000
  C   C108      1.0  0.13499  0.32264  0.35966  1.0000
  H   H88       1.0  0.08683  0.36913  0.32779  1.0000
  H   H89       1.0  0.15805  0.31850  0.36704  1.0000
  H   H90       1.0  0.06551  0.29578  0.35248  1.0000
  C   C109      1.0  0.11302  0.70459  0.33599  1.0000
  C   C110      1.0  0.08115  0.69951  0.32619  1.0000
  C   C111      1.0  0.06937  0.67578  0.32977  1.0000
  C   C112      1.0  0.09108  0.65682  0.34103  1.0000
  C   C113      1.0  0.12370  0.66091  0.34320  1.0000
  C   C114      1.0  0.13394  0.68520  0.34430  1.0000
  H   H91       1.0  0.08316  0.63961  0.33468  1.0000
  H   H92       1.0  0.15723  0.68889  0.34915  1.0000
  H   H93       1.0  0.06603  0.71370  0.32238  1.0000
  C   C115      1.0  0.39525  0.30394  0.33621  1.0000
  C   C116      1.0  0.42714  0.30895  0.32619  1.0000
  C   C117      1.0  0.43900  0.33265  0.32958  1.0000
  C   C118      1.0  0.41738  0.35167  0.34103  1.0000
  C   C119      1.0  0.38475  0.34764  0.34352  1.0000
  C   C120      1.0  0.37441  0.32337  0.34466  1.0000
  H   H94       1.0  0.42534  0.36886  0.33457  1.0000
  H   H95       1.0  0.35112  0.31974  0.34965  1.0000
  H   H96       1.0  0.44221  0.29473  0.32223  1.0000
  C   C121      1.0  0.03283  0.09335  0.34343  1.0000
  C   C122      1.0  0.50377  0.10482  0.33021  1.0000
  C   C123      1.0  0.47458  0.09351  0.34294  1.0000
  C   C124      1.0  0.47522  0.06879  0.36613  1.0000
  C   C125      1.0  0.00357  0.05585  0.37355  1.0000
  C   C126      1.0  0.03202  0.06869  0.36707  1.0000
  H   H97       1.0  0.45467  0.05958  0.37043  1.0000
  H   H98       1.0  0.05252  0.05943  0.37183  1.0000
  H   H99       1.0  0.50387  0.12305  0.32208  1.0000
  C   C127      1.0  0.47564  0.91491  0.34281  1.0000
  C   C128      1.0  0.00484  0.90354  0.33092  1.0000
  C   C129      1.0  0.03394  0.91500  0.34358  1.0000
  C   C130      1.0  0.03311  0.93971  0.36682  1.0000
  C   C131      1.0  0.50465  0.95252  0.37403  1.0000
  C   C132      1.0  0.47629  0.93963  0.36581  1.0000
  H   H100      1.0  0.05360  0.94900  0.37118  1.0000
  H   H101      1.0  0.45574  0.94884  0.36976  1.0000
  H   H102      1.0  0.00494  0.88530  0.32353  1.0000
  C   C133      1.0  0.28273  0.59339  0.34381  1.0000
  C   C134      1.0  0.25364  0.60486  0.33115  1.0000
  C   C135      1.0  0.22446  0.59351  0.34392  1.0000
  C   C136      1.0  0.22514  0.56878  0.36689  1.0000
  C   C137      1.0  0.25353  0.55584  0.37369  1.0000
  C   C138      1.0  0.28196  0.56870  0.36700  1.0000
  H   H103      1.0  0.20461  0.55955  0.37106  1.0000
  H   H104      1.0  0.30247  0.55943  0.37139  1.0000
  H   H105      1.0  0.25370  0.62310  0.32371  1.0000
  C   C139      1.0  0.22571  0.41488  0.34336  1.0000
  C   C140      1.0  0.25491  0.40351  0.33181  1.0000
  C   C141      1.0  0.28401  0.41499  0.34444  1.0000
  C   C142      1.0  0.28315  0.43972  0.36730  1.0000
  C   C143      1.0  0.25467  0.45253  0.37427  1.0000
  C   C144      1.0  0.22633  0.43963  0.36596  1.0000
  H   H106      1.0  0.30364  0.44900  0.37182  1.0000
  H   H107      1.0  0.20576  0.44883  0.36984  1.0000
  H   H108      1.0  0.25502  0.38524  0.32504  1.0000
  C   C145      1.0  0.27083  0.15524  0.37804  1.0000
  C   C146      1.0  0.23780  0.15490  0.38372  1.0000
  C   C147      1.0  0.21990  0.17056  0.32733  1.0000
  H   H109      1.0  0.28350  0.14519  0.42252  1.0000
  C   C148      1.0  0.22361  0.14027  0.45714  1.0000
  H   H110      1.0  0.24086  0.13223  0.50186  1.0000
  H   H111      1.0  0.21012  0.12560  0.42849  1.0000
  H   H112      1.0  0.20849  0.15143  0.49868  1.0000
  C   C149      1.0  0.23766  0.85316  0.37686  1.0000
  C   C150      1.0  0.27068  0.85346  0.38224  1.0000
  C   C151      1.0  0.28849  0.83771  0.32598  1.0000
  H   H113      1.0  0.22506  0.86328  0.42129  1.0000
  C   C152      1.0  0.28497  0.86818  0.45528  1.0000
  H   H114      1.0  0.26779  0.87633  0.49991  1.0000
  H   H115      1.0  0.29850  0.88277  0.42623  1.0000
  H   H116      1.0  0.30006  0.85705  0.49700  1.0000
  C   C153      1.0  0.02078  0.65510  0.37663  1.0000
  C   C154      1.0  0.48777  0.65479  0.38280  1.0000
  C   C155      1.0  0.46980  0.67046  0.32665  1.0000
  H   H117      1.0  0.03349  0.64510  0.42113  1.0000
  C   C156      1.0  0.47368  0.64020  0.45651  1.0000
  H   H118      1.0  0.49098  0.63209  0.50085  1.0000
  H   H119      1.0  0.46002  0.62558  0.42814  1.0000
  H   H120      1.0  0.45874  0.65141  0.49839  1.0000
  C   C157      1.0  0.48769  0.35330  0.37568  1.0000
  C   C158      1.0  0.02071  0.35357  0.38156  1.0000
  C   C159      1.0  0.03859  0.33782  0.32549  1.0000
  H   H121      1.0  0.47506  0.36337  0.42016  1.0000
  C   C160      1.0  0.03490  0.36823  0.45491  1.0000
  H   H122      1.0  0.01766  0.37642  0.49924  1.0000
  H   H123      1.0  0.04857  0.38278  0.42616  1.0000
  H   H124      1.0  0.04985  0.35704  0.49688  1.0000
  C   C161      1.0  0.06060  0.10737  0.33676  1.0000
  C   C162      1.0  0.10968  0.12233  0.40435  1.0000
  C   C163      1.0  0.08574  0.10480  0.39715  1.0000
  H   H125      1.0  0.08444  0.09159  0.44494  1.0000
  C   C164      1.0  0.13064  0.11981  0.48384  1.0000
  H   H126      1.0  0.14566  0.13523  0.49512  1.0000
  H   H127      1.0  0.14531  0.10400  0.47531  1.0000
  H   H128      1.0  0.11685  0.11760  0.54497  1.0000
  C   C165      1.0  0.44798  0.90076  0.33564  1.0000
  C   C166      1.0  0.39820  0.88631  0.40071  1.0000
  C   C167      1.0  0.42218  0.90381  0.39339  1.0000
  H   H129      1.0  0.42295  0.91744  0.43956  1.0000
  C   C168      1.0  0.37646  0.88954  0.47807  1.0000
  H   H130      1.0  0.36192  0.87397  0.49148  1.0000
  H   H131      1.0  0.36134  0.90489  0.46522  1.0000
  H   H132      1.0  0.38957  0.89292  0.53971  1.0000
  C   C169      1.0  0.42085  0.10468  0.39195  1.0000
  C   C170      1.0  0.39612  0.12169  0.39538  1.0000
  C   C171      1.0  0.39585  0.14172  0.33462  1.0000
  H   H133      1.0  0.42176  0.09143  0.43948  1.0000
  C   C172      1.0  0.37350  0.11944  0.47111  1.0000
  H   H134      1.0  0.38037  0.10599  0.52068  1.0000
  H   H135      1.0  0.35078  0.11413  0.44551  1.0000
  H   H136      1.0  0.37138  0.13648  0.50675  1.0000
  C   C173      1.0  0.08772  0.90389  0.39256  1.0000
  C   C174      1.0  0.11245  0.88687  0.39584  1.0000
  C   C175      1.0  0.11272  0.86688  0.33491  1.0000
  H   H137      1.0  0.08679  0.91711  0.44024  1.0000
  C   C176      1.0  0.13510  0.88908  0.47151  1.0000
  H   H138      1.0  0.12833  0.90258  0.52098  1.0000
  H   H139      1.0  0.15785  0.89427  0.44584  1.0000
  H   H140      1.0  0.13711  0.87204  0.50727  1.0000
  C   C177      1.0  0.31047  0.60745  0.33706  1.0000
  C   C178      1.0  0.35982  0.62215  0.40382  1.0000
  C   C179      1.0  0.33586  0.60464  0.39646  1.0000
  H   H141      1.0  0.33475  0.59126  0.44355  1.0000
  C   C180      1.0  0.38111  0.61929  0.48240  1.0000
  H   H142      1.0  0.39604  0.63472  0.49441  1.0000
  H   H143      1.0  0.39587  0.60360  0.47214  1.0000
  H   H144      1.0  0.36760  0.61667  0.54381  1.0000
  C   C181      1.0  0.19806  0.40071  0.33623  1.0000
  C   C182      1.0  0.14817  0.38636  0.40089  1.0000
  C   C183      1.0  0.17216  0.40385  0.39352  1.0000
  H   H145      1.0  0.17283  0.41756  0.43936  1.0000
  C   C184      1.0  0.12628  0.38973  0.47782  1.0000
  H   H146      1.0  0.11173  0.37418  0.49142  1.0000
  H   H147      1.0  0.11117  0.40505  0.46428  1.0000
  H   H148      1.0  0.13926  0.39324  0.53957  1.0000
  C   C185      1.0  0.17071  0.60461  0.39310  1.0000
  C   C186      1.0  0.14598  0.62162  0.39678  1.0000
  C   C187      1.0  0.14578  0.64176  0.33658  1.0000
  H   H149      1.0  0.17158  0.59128  0.44033  1.0000
  C   C188      1.0  0.12325  0.61924  0.47219  1.0000
  H   H150      1.0  0.13002  0.60566  0.52137  1.0000
  H   H151      1.0  0.10055  0.61405  0.44620  1.0000
  H   H152      1.0  0.12116  0.63620  0.50835  1.0000
  C   C189      1.0  0.33782  0.40397  0.39353  1.0000
  C   C190      1.0  0.36256  0.38697  0.39711  1.0000
  C   C191      1.0  0.36275  0.36683  0.33686  1.0000
  H   H153      1.0  0.33693  0.41729  0.44083  1.0000
  C   C192      1.0  0.38533  0.38934  0.47240  1.0000
  H   H154      1.0  0.37865  0.40297  0.52147  1.0000
  H   H155      1.0  0.40806  0.39444  0.44627  1.0000
  H   H156      1.0  0.38736  0.37239  0.50871  1.0000
  C   C193      1.0  0.12506  0.26632  0.44173  1.0000
  C   C194      1.0  0.13192  0.24143  0.44238  1.0000
  C   C195      1.0  0.13559  0.22900  0.35914  1.0000
  H   H157      1.0  0.12192  0.27526  0.50120  1.0000
  C   C196      1.0  0.13503  0.22888  0.53039  1.0000
  H   H158      1.0  0.13136  0.24079  0.58771  1.0000
  H   H159      1.0  0.15831  0.22124  0.53656  1.0000
  H   H160      1.0  0.11793  0.21445  0.53473  1.0000
  C   C197      1.0  0.38266  0.74175  0.44190  1.0000
  C   C198      1.0  0.37579  0.76663  0.44256  1.0000
  C   C199      1.0  0.37254  0.77914  0.35934  1.0000
  H   H161      1.0  0.38551  0.73275  0.50138  1.0000
  C   C200      1.0  0.37224  0.77910  0.53058  1.0000
  H   H162      1.0  0.37565  0.76715  0.58791  1.0000
  H   H163      1.0  0.34894  0.78673  0.53591  1.0000
  H   H164      1.0  0.38931  0.79354  0.53579  1.0000
  C   C201      1.0  0.38527  0.27958  0.33572  1.0000
  C   C202      1.0  0.37304  0.24249  0.41920  1.0000
  C   C203      1.0  0.37921  0.26746  0.41692  1.0000
  H   H165      1.0  0.37990  0.27697  0.47590  1.0000
  C   C204      1.0  0.36707  0.23179  0.50947  1.0000
  H   H166      1.0  0.36320  0.21248  0.50791  1.0000
  H   H167      1.0  0.34653  0.24011  0.53929  1.0000
  H   H168      1.0  0.38699  0.23508  0.55332  1.0000
  C   C205      1.0  0.12291  0.72897  0.33556  1.0000
  C   C206      1.0  0.13524  0.76602  0.41916  1.0000
  C   C207      1.0  0.12906  0.74106  0.41680  1.0000
  H   H169      1.0  0.12845  0.73152  0.47572  1.0000
  C   C208      1.0  0.14129  0.77669  0.50942  1.0000
  H   H170      1.0  0.14515  0.79600  0.50795  1.0000
  H   H171      1.0  0.16187  0.76836  0.53902  1.0000
  H   H172      1.0  0.12142  0.77337  0.55344  1.0000
  C   C209      1.0  0.00446  0.97826  0.37649  1.0000
  C   C210      1.0  0.00437  0.01692  0.45889  1.0000
  C   C211      1.0  0.00477  0.99140  0.45753  1.0000
  H   H173      1.0  0.00526  0.98211  0.51696  1.0000
  C   C212      1.0  0.00472  0.02860  0.54895  1.0000
  H   H174      1.0  0.00427  0.04813  0.54597  1.0000
  H   H175      1.0  0.02571  0.02334  0.58523  1.0000
  H   H176      1.0  0.48446  0.02282  0.58752  1.0000
  C   C213      1.0  0.25449  0.47826  0.37669  1.0000
  C   C214      1.0  0.25440  0.51693  0.45905  1.0000
  C   C215      1.0  0.25483  0.49141  0.45772  1.0000
  H   H177      1.0  0.25536  0.48212  0.51715  1.0000
  C   C216      1.0  0.25479  0.52861  0.54911  1.0000
  H   H178      1.0  0.25432  0.54815  0.54611  1.0000
  H   H179      1.0  0.27581  0.52336  0.58529  1.0000
  H   H180      1.0  0.23455  0.52282  0.58777  1.0000
  C   C217      1.0  0.78683  0.17217  0.32461  1.0000
  C   C218      1.0  0.73607  0.18486  0.26259  1.0000
  C   C219      1.0  0.76877  0.18632  0.26576  1.0000
  H   H181      1.0  0.77988  0.19720  0.22037  1.0000
  C   C220      1.0  0.72077  0.19778  0.18643  1.0000
  H   H182      1.0  0.69636  0.19298  0.17822  1.0000
  H   H183      1.0  0.73227  0.19326  0.12316  1.0000
  H   H184      1.0  0.72245  0.21712  0.19676  1.0000
  C   C221      1.0  0.72157  0.83619  0.32383  1.0000
  C   C222      1.0  0.77223  0.82335  0.26162  1.0000
  C   C223      1.0  0.73953  0.82196  0.26503  1.0000
  H   H185      1.0  0.72835  0.81105  0.21990  1.0000
  C   C224      1.0  0.78745  0.81029  0.18567  1.0000
  H   H186      1.0  0.81188  0.81498  0.17737  1.0000
  H   H187      1.0  0.77597  0.81478  0.12234  1.0000
  H   H188      1.0  0.78563  0.79096  0.19632  1.0000
  C   C225      1.0  0.53673  0.67195  0.32268  1.0000
  C   C226      1.0  0.98585  0.68473  0.26156  1.0000
  C   C227      1.0  0.51857  0.68607  0.26396  1.0000
  H   H189      1.0  0.52961  0.69691  0.21833  1.0000
  C   C228      1.0  0.97040  0.69781  0.18604  1.0000
  H   H190      1.0  0.94582  0.69338  0.17893  1.0000
  H   H191      1.0  0.98146  0.69310  0.12231  1.0000
  H   H192      1.0  0.97259  0.71713  0.19613  1.0000
  C   C229      1.0  0.97165  0.33642  0.32212  1.0000
  C   C230      1.0  0.52243  0.32349  0.26078  1.0000
  C   C231      1.0  0.98971  0.32222  0.26343  1.0000
  H   H193      1.0  0.97860  0.31134  0.21804  1.0000
  C   C232      1.0  0.53778  0.31029  0.18540  1.0000
  H   H194      1.0  0.56238  0.31463  0.17814  1.0000
  H   H195      1.0  0.52671  0.31495  0.12166  1.0000
  H   H196      1.0  0.53551  0.29098  0.19584  1.0000
  C   C233      1.0  0.56286  0.12635  0.27393  1.0000
  C   C234      1.0  0.58723  0.14335  0.27445  1.0000
  C   C235      1.0  0.61014  0.14240  0.34403  1.0000
  H   H197      1.0  0.54635  0.12756  0.22452  1.0000
  C   C236      1.0  0.58897  0.16050  0.19722  1.0000
  H   H198      1.0  0.57392  0.15533  0.14131  1.0000
  H   H199      1.0  0.61267  0.16121  0.17097  1.0000
  H   H200      1.0  0.58194  0.17841  0.21831  1.0000
  C   C237      1.0  0.94629  0.88126  0.27489  1.0000
  C   C238      1.0  0.92198  0.86420  0.27549  1.0000
  C   C239      1.0  0.89837  0.86569  0.34302  1.0000
  H   H201      1.0  0.96320  0.87969  0.22677  1.0000
  C   C240      1.0  0.92115  0.84644  0.20007  1.0000
  H   H202      1.0  0.93590  0.85170  0.14361  1.0000
  H   H203      1.0  0.89754  0.84474  0.17382  1.0000
  H   H204      1.0  0.92919  0.82895  0.22312  1.0000
  C   C241      1.0  0.94687  0.10759  0.33492  1.0000
  C   C242      1.0  0.91992  0.14287  0.26831  1.0000
  C   C243      1.0  0.94509  0.12663  0.27226  1.0000
  H   H205      1.0  0.96213  0.12804  0.22436  1.0000
  C   C244      1.0  0.91949  0.15915  0.18840  1.0000
  H   H206      1.0  0.89691  0.16748  0.17713  1.0000
  H   H207      1.0  0.92481  0.14910  0.12721  1.0000
  H   H208      1.0  0.93695  0.17320  0.19671  1.0000
  C   C245      1.0  0.56171  0.90099  0.33548  1.0000
  C   C246      1.0  0.58871  0.86580  0.26844  1.0000
  C   C247      1.0  0.56355  0.88205  0.27245  1.0000
  H   H209      1.0  0.54652  0.88067  0.22449  1.0000
  C   C248      1.0  0.58915  0.84956  0.18842  1.0000
  H   H210      1.0  0.61172  0.84118  0.17728  1.0000
  H   H211      1.0  0.58394  0.85965  0.12728  1.0000
  H   H212      1.0  0.57163  0.83555  0.19646  1.0000
  C   C249      1.0  0.81254  0.62664  0.27509  1.0000
  C   C250      1.0  0.83688  0.64366  0.27581  1.0000
  C   C251      1.0  0.86004  0.64247  0.34467  1.0000
  H   H213      1.0  0.79588  0.62801  0.22615  1.0000
  C   C252      1.0  0.83831  0.66108  0.19936  1.0000
  H   H214      1.0  0.82322  0.65600  0.14344  1.0000
  H   H215      1.0  0.86195  0.66203  0.17279  1.0000
  H   H216      1.0  0.83113  0.67887  0.22144  1.0000
  C   C253      1.0  0.69646  0.38111  0.27587  1.0000
  C   C254      1.0  0.67217  0.36405  0.27657  1.0000
  C   C255      1.0  0.64846  0.36563  0.34374  1.0000
  H   H217      1.0  0.71344  0.37947  0.22799  1.0000
  C   C256      1.0  0.67150  0.34615  0.20161  1.0000
  H   H218      1.0  0.68623  0.35138  0.14506  1.0000
  H   H219      1.0  0.64792  0.34428  0.17530  1.0000
  H   H220      1.0  0.67967  0.32875  0.22515  1.0000
  C   C257      1.0  0.69676  0.60761  0.33622  1.0000
  C   C258      1.0  0.66988  0.64304  0.27039  1.0000
  C   C259      1.0  0.69499  0.62674  0.27392  1.0000
  H   H221      1.0  0.71204  0.62822  0.22607  1.0000
  C   C260      1.0  0.66968  0.65958  0.19115  1.0000
  H   H222      1.0  0.64736  0.66839  0.18056  1.0000
  H   H223      1.0  0.67456  0.64960  0.12951  1.0000
  H   H224      1.0  0.68758  0.67329  0.19964  1.0000
  C   C261      1.0  0.81178  0.40096  0.33668  1.0000
  C   C262      1.0  0.83869  0.36559  0.27056  1.0000
  C   C263      1.0  0.81359  0.38190  0.27413  1.0000
  H   H225      1.0  0.79654  0.38043  0.22627  1.0000
  C   C264      1.0  0.83889  0.34907  0.19127  1.0000
  H   H226      1.0  0.86120  0.34024  0.18075  1.0000
  H   H227      1.0  0.83406  0.35907  0.12965  1.0000
  H   H228      1.0  0.82096  0.33538  0.19962  1.0000
  C   C265      1.0  0.62232  0.27924  0.36076  1.0000
  C   C266      1.0  0.63242  0.24186  0.27656  1.0000
  C   C267      1.0  0.62575  0.26674  0.27902  1.0000
  H   H229      1.0  0.62309  0.27596  0.21986  1.0000
  C   C268      1.0  0.63545  0.23083  0.18561  1.0000
  H   H230      1.0  0.63941  0.21153  0.18706  1.0000
  H   H231      1.0  0.65490  0.23907  0.14988  1.0000
  H   H232      1.0  0.61418  0.23390  0.14718  1.0000
  C   C269      1.0  0.88585  0.72889  0.36089  1.0000
  C   C270      1.0  0.87611  0.76634  0.27674  1.0000
  C   C271      1.0  0.88282  0.74147  0.27918  1.0000
  H   H233      1.0  0.88579  0.73230  0.22002  1.0000
  C   C272      1.0  0.87343  0.77744  0.18579  1.0000
  H   H234      1.0  0.86931  0.79671  0.18727  1.0000
  H   H235      1.0  0.85423  0.76914  0.14918  1.0000
  H   H236      1.0  0.89491  0.77448  0.14820  1.0000
  C   C273      1.0  0.88566  0.26617  0.25538  1.0000
  C   C274      1.0  0.87910  0.24127  0.25438  1.0000
  C   C275      1.0  0.87306  0.22917  0.33716  1.0000
  H   H237      1.0  0.89073  0.27483  0.19643  1.0000
  C   C276      1.0  0.87891  0.22843  0.16645  1.0000
  H   H238      1.0  0.88393  0.24023  0.10966  1.0000
  H   H239      1.0  0.85613  0.22037  0.15479  1.0000
  H   H240      1.0  0.89649  0.21433  0.16703  1.0000
  C   C277      1.0  0.62245  0.74241  0.25530  1.0000
  C   C278      1.0  0.62901  0.76731  0.25439  1.0000
  C   C279      1.0  0.63514  0.77938  0.33719  1.0000
  H   H241      1.0  0.61733  0.73377  0.19633  1.0000
  C   C280      1.0  0.62912  0.78018  0.16653  1.0000
  H   H242      1.0  0.62403  0.76841  0.10971  1.0000
  H   H243      1.0  0.65190  0.78823  0.15472  1.0000
  H   H244      1.0  0.61156  0.79430  0.16734  1.0000
  C   C281      1.0  0.50371  0.99136  0.29541  1.0000
  C   C282      1.0  0.50335  0.01681  0.29367  1.0000
  C   C283      1.0  0.50363  0.02998  0.37619  1.0000
  H   H245      1.0  0.50348  0.98203  0.23605  1.0000
  C   C284      1.0  0.50278  0.02910  0.20453  1.0000
  H   H246      1.0  0.50272  0.01657  0.14806  1.0000
  H   H247      1.0  0.52324  0.04053  0.19748  1.0000
  H   H248      1.0  0.98192  0.04016  0.19900  1.0000
  C   C285      1.0  0.75366  0.49135  0.29559  1.0000
  C   C286      1.0  0.75328  0.51681  0.29383  1.0000
  C   C287      1.0  0.75359  0.52998  0.37634  1.0000
  H   H249      1.0  0.75340  0.48202  0.23625  1.0000
  C   C288      1.0  0.75262  0.52909  0.20470  1.0000
  H   H250      1.0  0.75252  0.51657  0.14824  1.0000
  H   H251      1.0  0.77308  0.54052  0.19750  1.0000
  H   H252      1.0  0.73176  0.54015  0.19931  1.0000
  C   C289      1.0  0.64498  0.20438  0.35864  1.0000
  C   C290      1.0  0.67681  0.19871  0.35141  1.0000
  C   C291      1.0  0.68755  0.17477  0.34200  1.0000
  C   C292      1.0  0.66498  0.15621  0.34369  1.0000
  C   C293      1.0  0.63267  0.16108  0.35094  1.0000
  C   C294      1.0  0.62323  0.18542  0.35819  1.0000
  H   H253      1.0  0.67181  0.13900  0.33039  1.0000
  H   H254      1.0  0.60010  0.18948  0.36438  1.0000
  H   H255      1.0  0.69255  0.21252  0.35240  1.0000
  C   C295      1.0  0.86322  0.80377  0.35871  1.0000
  C   C296      1.0  0.83144  0.80949  0.35076  1.0000
  C   C297      1.0  0.82082  0.83344  0.34070  1.0000
  C   C298      1.0  0.84346  0.85195  0.34218  1.0000
  C   C299      1.0  0.87575  0.84705  0.35010  1.0000
  C   C300      1.0  0.88503  0.82269  0.35837  1.0000
  H   H256      1.0  0.83669  0.86912  0.32789  1.0000
  H   H257      1.0  0.90812  0.81858  0.36542  1.0000
  H   H258      1.0  0.81564  0.79571  0.35178  1.0000
  C   C301      1.0  0.86320  0.20467  0.33617  1.0000
  C   C302      1.0  0.83124  0.19967  0.32892  1.0000
  C   C303      1.0  0.81948  0.17594  0.33148  1.0000
  C   C304      1.0  0.84118  0.15690  0.34111  1.0000
  C   C305      1.0  0.87384  0.16093  0.34110  1.0000
  C   C306      1.0  0.88416  0.18521  0.34130  1.0000
  H   H259      1.0  0.83318  0.13973  0.33446  1.0000
  H   H260      1.0  0.90746  0.18888  0.34516  1.0000
  H   H261      1.0  0.81611  0.21388  0.32662  1.0000
  C   C307      1.0  0.64508  0.80386  0.33623  1.0000
  C   C308      1.0  0.67706  0.80878  0.32867  1.0000
  C   C309      1.0  0.68891  0.83249  0.33108  1.0000
  C   C310      1.0  0.66729  0.85157  0.34092  1.0000
  C   C311      1.0  0.63463  0.84761  0.34143  1.0000
  C   C312      1.0  0.62421  0.82336  0.34161  1.0000
  H   H262      1.0  0.67538  0.86872  0.33433  1.0000
  H   H263      1.0  0.60089  0.81975  0.34561  1.0000
  H   H264      1.0  0.69213  0.79454  0.32621  1.0000
  C   C313      1.0  0.89512  0.70438  0.36056  1.0000
  C   C314      1.0  0.92690  0.69867  0.35227  1.0000
  C   C315      1.0  0.93752  0.67472  0.34207  1.0000
  C   C316      1.0  0.91490  0.65620  0.34378  1.0000
  C   C317      1.0  0.88262  0.66112  0.35174  1.0000
  C   C318      1.0  0.87330  0.68547  0.35989  1.0000
  H   H265      1.0  0.92168  0.63901  0.32975  1.0000
  H   H266      1.0  0.85020  0.68957  0.36661  1.0000
  H   H267      1.0  0.94271  0.71245  0.35307  1.0000
  C   C319      1.0  0.61311  0.30377  0.36029  1.0000
  C   C320      1.0  0.58137  0.30952  0.35158  1.0000
  C   C321      1.0  0.57085  0.33349  0.34091  1.0000
  C   C322      1.0  0.59354  0.35196  0.34224  1.0000
  C   C323      1.0  0.62579  0.34702  0.35088  1.0000
  C   C324      1.0  0.63499  0.32264  0.35966  1.0000
  H   H268      1.0  0.58683  0.36913  0.32779  1.0000
  H   H269      1.0  0.65805  0.31850  0.36704  1.0000
  H   H270      1.0  0.56551  0.29578  0.35248  1.0000
  C   C325      1.0  0.61302  0.70459  0.33599  1.0000
  C   C326      1.0  0.58115  0.69951  0.32619  1.0000
  C   C327      1.0  0.56937  0.67578  0.32977  1.0000
  C   C328      1.0  0.59108  0.65682  0.34103  1.0000
  C   C329      1.0  0.62370  0.66091  0.34320  1.0000
  C   C330      1.0  0.63394  0.68520  0.34430  1.0000
  H   H271      1.0  0.58316  0.63961  0.33468  1.0000
  H   H272      1.0  0.65722  0.68889  0.34915  1.0000
  H   H273      1.0  0.56603  0.71370  0.32238  1.0000
  C   C331      1.0  0.89525  0.30394  0.33621  1.0000
  C   C332      1.0  0.92714  0.30895  0.32619  1.0000
  C   C333      1.0  0.93900  0.33265  0.32958  1.0000
  C   C334      1.0  0.91738  0.35167  0.34103  1.0000
  C   C335      1.0  0.88475  0.34764  0.34352  1.0000
  C   C336      1.0  0.87441  0.32337  0.34466  1.0000
  H   H274      1.0  0.92534  0.36886  0.33457  1.0000
  H   H275      1.0  0.85112  0.31974  0.34965  1.0000
  H   H276      1.0  0.94221  0.29473  0.32223  1.0000
  C   C337      1.0  0.53283  0.09335  0.34343  1.0000
  C   C338      1.0  0.00377  0.10482  0.33021  1.0000
  C   C339      1.0  0.97458  0.09351  0.34294  1.0000
  C   C340      1.0  0.97522  0.06879  0.36613  1.0000
  C   C341      1.0  0.50358  0.05585  0.37355  1.0000
  C   C342      1.0  0.53202  0.06869  0.36707  1.0000
  H   H277      1.0  0.95467  0.05958  0.37043  1.0000
  H   H278      1.0  0.55252  0.05943  0.37183  1.0000
  H   H279      1.0  0.00387  0.12305  0.32208  1.0000
  C   C343      1.0  0.97565  0.91491  0.34281  1.0000
  C   C344      1.0  0.50484  0.90354  0.33092  1.0000
  C   C345      1.0  0.53394  0.91500  0.34358  1.0000
  C   C346      1.0  0.53311  0.93971  0.36682  1.0000
  C   C347      1.0  0.00465  0.95252  0.37403  1.0000
  C   C348      1.0  0.97629  0.93963  0.36581  1.0000
  H   H280      1.0  0.55360  0.94900  0.37118  1.0000
  H   H281      1.0  0.95574  0.94884  0.36976  1.0000
  H   H282      1.0  0.50494  0.88530  0.32353  1.0000
  C   C349      1.0  0.78273  0.59339  0.34381  1.0000
  C   C350      1.0  0.75364  0.60486  0.33115  1.0000
  C   C351      1.0  0.72446  0.59351  0.34392  1.0000
  C   C352      1.0  0.72514  0.56878  0.36689  1.0000
  C   C353      1.0  0.75353  0.55584  0.37369  1.0000
  C   C354      1.0  0.78196  0.56870  0.36700  1.0000
  H   H283      1.0  0.70461  0.55955  0.37106  1.0000
  H   H284      1.0  0.80246  0.55943  0.37139  1.0000
  H   H285      1.0  0.75370  0.62310  0.32371  1.0000
  C   C355      1.0  0.72571  0.41488  0.34336  1.0000
  C   C356      1.0  0.75492  0.40351  0.33181  1.0000
  C   C357      1.0  0.78401  0.41499  0.34444  1.0000
  C   C358      1.0  0.78315  0.43972  0.36730  1.0000
  C   C359      1.0  0.75467  0.45253  0.37427  1.0000
  C   C360      1.0  0.72633  0.43963  0.36596  1.0000
  H   H286      1.0  0.80364  0.44900  0.37182  1.0000
  H   H287      1.0  0.70576  0.44883  0.36984  1.0000
  H   H288      1.0  0.75502  0.38524  0.32504  1.0000
  C   C361      1.0  0.77083  0.15524  0.37804  1.0000
  C   C362      1.0  0.73780  0.15490  0.38372  1.0000
  C   C363      1.0  0.71990  0.17056  0.32733  1.0000
  H   H289      1.0  0.78350  0.14519  0.42252  1.0000
  C   C364      1.0  0.72361  0.14027  0.45714  1.0000
  H   H290      1.0  0.74085  0.13223  0.50186  1.0000
  H   H291      1.0  0.71012  0.12560  0.42849  1.0000
  H   H292      1.0  0.70849  0.15143  0.49868  1.0000
  C   C365      1.0  0.73766  0.85316  0.37686  1.0000
  C   C366      1.0  0.77068  0.85346  0.38224  1.0000
  C   C367      1.0  0.78849  0.83771  0.32598  1.0000
  H   H293      1.0  0.72506  0.86328  0.42129  1.0000
  C   C368      1.0  0.78497  0.86818  0.45528  1.0000
  H   H294      1.0  0.76779  0.87633  0.49991  1.0000
  H   H295      1.0  0.79850  0.88277  0.42623  1.0000
  H   H296      1.0  0.80006  0.85705  0.49700  1.0000
  C   C369      1.0  0.52078  0.65510  0.37663  1.0000
  C   C370      1.0  0.98777  0.65479  0.38280  1.0000
  C   C371      1.0  0.96980  0.67046  0.32665  1.0000
  H   H297      1.0  0.53349  0.64510  0.42113  1.0000
  C   C372      1.0  0.97368  0.64020  0.45651  1.0000
  H   H298      1.0  0.99098  0.63209  0.50085  1.0000
  H   H299      1.0  0.96002  0.62558  0.42814  1.0000
  H   H300      1.0  0.95874  0.65141  0.49839  1.0000
  C   C373      1.0  0.98770  0.35330  0.37568  1.0000
  C   C374      1.0  0.52071  0.35357  0.38156  1.0000
  C   C375      1.0  0.53858  0.33782  0.32549  1.0000
  H   H301      1.0  0.97506  0.36337  0.42016  1.0000
  C   C376      1.0  0.53490  0.36823  0.45491  1.0000
  H   H302      1.0  0.51766  0.37642  0.49924  1.0000
  H   H303      1.0  0.54857  0.38278  0.42616  1.0000
  H   H304      1.0  0.54985  0.35704  0.49688  1.0000
  C   C377      1.0  0.56060  0.10737  0.33676  1.0000
  C   C378      1.0  0.60967  0.12233  0.40435  1.0000
  C   C379      1.0  0.58574  0.10480  0.39716  1.0000
  H   H305      1.0  0.58444  0.09159  0.44494  1.0000
  C   C380      1.0  0.63064  0.11981  0.48384  1.0000
  H   H306      1.0  0.64566  0.13523  0.49512  1.0000
  H   H307      1.0  0.64531  0.10400  0.47531  1.0000
  H   H308      1.0  0.61685  0.11760  0.54497  1.0000
  C   C381      1.0  0.94798  0.90076  0.33564  1.0000
  C   C382      1.0  0.89820  0.88631  0.40071  1.0000
  C   C383      1.0  0.92218  0.90381  0.39339  1.0000
  H   H309      1.0  0.92294  0.91744  0.43956  1.0000
  C   C384      1.0  0.87646  0.88954  0.47807  1.0000
  H   H310      1.0  0.86192  0.87397  0.49148  1.0000
  H   H311      1.0  0.86134  0.90489  0.46522  1.0000
  H   H312      1.0  0.88957  0.89292  0.53971  1.0000
  C   C385      1.0  0.92085  0.10468  0.39195  1.0000
  C   C386      1.0  0.89612  0.12169  0.39538  1.0000
  C   C387      1.0  0.89584  0.14172  0.33462  1.0000
  H   H313      1.0  0.92176  0.09143  0.43948  1.0000
  C   C388      1.0  0.87350  0.11944  0.47111  1.0000
  H   H314      1.0  0.88037  0.10599  0.52068  1.0000
  H   H315      1.0  0.85078  0.11413  0.44551  1.0000
  H   H316      1.0  0.87138  0.13648  0.50675  1.0000
  C   C389      1.0  0.58772  0.90389  0.39256  1.0000
  C   C390      1.0  0.61245  0.88687  0.39584  1.0000
  C   C391      1.0  0.61272  0.86688  0.33491  1.0000
  H   H317      1.0  0.58679  0.91711  0.44024  1.0000
  C   C392      1.0  0.63510  0.88908  0.47151  1.0000
  H   H318      1.0  0.62833  0.90258  0.52097  1.0000
  H   H319      1.0  0.65785  0.89427  0.44584  1.0000
  H   H320      1.0  0.63711  0.87204  0.50726  1.0000
  C   C393      1.0  0.81047  0.60745  0.33706  1.0000
  C   C394      1.0  0.85982  0.62215  0.40382  1.0000
  C   C395      1.0  0.83586  0.60464  0.39646  1.0000
  H   H321      1.0  0.83475  0.59126  0.44355  1.0000
  C   C396      1.0  0.88111  0.61929  0.48240  1.0000
  H   H322      1.0  0.89604  0.63472  0.49441  1.0000
  H   H323      1.0  0.89588  0.60360  0.47214  1.0000
  H   H324      1.0  0.86759  0.61667  0.54381  1.0000
  C   C397      1.0  0.69806  0.40071  0.33623  1.0000
  C   C398      1.0  0.64817  0.38636  0.40089  1.0000
  C   C399      1.0  0.67216  0.40385  0.39352  1.0000
  H   H325      1.0  0.67283  0.41756  0.43936  1.0000
  C   C400      1.0  0.62628  0.38973  0.47782  1.0000
  H   H326      1.0  0.61172  0.37418  0.49142  1.0000
  H   H327      1.0  0.61117  0.40505  0.46428  1.0000
  H   H328      1.0  0.63926  0.39324  0.53957  1.0000
  C   C401      1.0  0.67071  0.60461  0.39310  1.0000
  C   C402      1.0  0.64598  0.62162  0.39678  1.0000
  C   C403      1.0  0.64578  0.64176  0.33658  1.0000
  H   H329      1.0  0.67158  0.59128  0.44033  1.0000
  C   C404      1.0  0.62325  0.61924  0.47219  1.0000
  H   H330      1.0  0.63002  0.60566  0.52138  1.0000
  H   H331      1.0  0.60054  0.61405  0.44620  1.0000
  H   H332      1.0  0.62116  0.63620  0.50835  1.0000
  C   C405      1.0  0.83782  0.40397  0.39353  1.0000
  C   C406      1.0  0.86256  0.38697  0.39711  1.0000
  C   C407      1.0  0.86275  0.36683  0.33686  1.0000
  H   H333      1.0  0.83693  0.41729  0.44083  1.0000
  C   C408      1.0  0.88533  0.38934  0.47240  1.0000
  H   H334      1.0  0.87865  0.40297  0.52147  1.0000
  H   H335      1.0  0.90806  0.39444  0.44627  1.0000
  H   H336      1.0  0.88736  0.37239  0.50871  1.0000
  C   C409      1.0  0.62506  0.26632  0.44173  1.0000
  C   C410      1.0  0.63192  0.24143  0.44238  1.0000
  C   C411      1.0  0.63560  0.22900  0.35914  1.0000
  H   H337      1.0  0.62192  0.27526  0.50120  1.0000
  C   C412      1.0  0.63503  0.22888  0.53039  1.0000
  H   H338      1.0  0.63136  0.24079  0.58771  1.0000
  H   H339      1.0  0.65831  0.22124  0.53656  1.0000
  H   H340      1.0  0.61793  0.21445  0.53473  1.0000
  C   C413      1.0  0.88266  0.74175  0.44190  1.0000
  C   C414      1.0  0.87578  0.76663  0.44256  1.0000
  C   C415      1.0  0.87254  0.77914  0.35934  1.0000
  H   H341      1.0  0.88551  0.73275  0.50138  1.0000
  C   C416      1.0  0.87224  0.77910  0.53058  1.0000
  H   H342      1.0  0.87565  0.76715  0.58791  1.0000
  H   H343      1.0  0.84893  0.78673  0.53591  1.0000
  H   H344      1.0  0.88930  0.79354  0.53579  1.0000
  C   C417      1.0  0.88527  0.27958  0.33572  1.0000
  C   C418      1.0  0.87304  0.24249  0.41920  1.0000
  C   C419      1.0  0.87921  0.26746  0.41692  1.0000
  H   H345      1.0  0.87990  0.27697  0.47590  1.0000
  C   C420      1.0  0.86707  0.23179  0.50947  1.0000
  H   H346      1.0  0.86320  0.21248  0.50791  1.0000
  H   H347      1.0  0.84652  0.24011  0.53929  1.0000
  H   H348      1.0  0.88699  0.23508  0.55332  1.0000
  C   C421      1.0  0.62291  0.72897  0.33556  1.0000
  C   C422      1.0  0.63523  0.76602  0.41916  1.0000
  C   C423      1.0  0.62906  0.74106  0.41680  1.0000
  H   H349      1.0  0.62845  0.73152  0.47572  1.0000
  C   C424      1.0  0.64129  0.77669  0.50942  1.0000
  H   H350      1.0  0.64515  0.79600  0.50795  1.0000
  H   H351      1.0  0.66187  0.76836  0.53902  1.0000
  H   H352      1.0  0.62142  0.77337  0.55344  1.0000
  C   C425      1.0  0.50446  0.97826  0.37649  1.0000
  C   C426      1.0  0.50437  0.01692  0.45889  1.0000
  C   C427      1.0  0.50477  0.99140  0.45753  1.0000
  H   H353      1.0  0.50526  0.98211  0.51696  1.0000
  C   C428      1.0  0.50472  0.02860  0.54895  1.0000
  H   H354      1.0  0.50427  0.04813  0.54597  1.0000
  H   H355      1.0  0.52571  0.02334  0.58523  1.0000
  H   H356      1.0  0.98445  0.02282  0.58752  1.0000
  C   C429      1.0  0.75448  0.47826  0.37669  1.0000
  C   C430      1.0  0.75440  0.51693  0.45905  1.0000
  C   C431      1.0  0.75483  0.49141  0.45772  1.0000
  H   H357      1.0  0.75536  0.48212  0.51715  1.0000
  C   C432      1.0  0.75479  0.52861  0.54911  1.0000
  H   H358      1.0  0.75432  0.54815  0.54611  1.0000
  H   H359      1.0  0.77581  0.52336  0.58529  1.0000
  H   H360      1.0  0.73455  0.52282  0.58777  1.0000
