data_image0
_chemical_formula_structural       C3NOCH3C3NOCH3CNHCNHCNHCNHCNHCNHC3NOCH3C3NOCH3CNHCNHC3NOCH3C3NOCH3CNHCNHCNHCNHC3NOCH3C3NOCH3CNHCNHC3NOCH3C3NOCH3CNHCNHCNHCNHC3NOCH3C3NOCH3CNCNCNCNCNCNCNCNCNCNCNCNCNCNCNCNCNCNCNCNCNCNCNCNCNCNCNCNCNCNCNCNCNCNCNCNCNCNCNCNCNCNCNCNCNCNCNCNCNCNCNCNCNCNCNCNCNCNCNCNCNHCNHC3NOCH3C3NOCH3C3NOCH3C3NOCH3C3NOCH3C3NOCH3CNHCNHC3NOCH3C3NOCH3CNHCNHC3NOCH3C3NOCH3C3NOCH3C3NOCH3CNHCNHC3NOCH3C3NOCH3CNHCNHC3NOCH3C3NOCH3C3NOCH3C3NOCH3CNHCNHC3NOCH3C3NOCH3CNHCNHCNHCNHCNHCNHC3NOCH3C3NOCH3CNHCNHC3NOCH3C3NOCH3CNHCNHCNHCNHC3NOCH3C3NOCH3CNHCNHC3NOCH3C3NOCH3CNHCNHCNHCNHC3NOCH3C3NOCH3CNCNCNCNCNCNCNCNCNCNCNCNCNCNCNCNCNCNCNCNCNCNCNCNCNCNCNCNCNCNCNCNCNCNCNCNCNCNCNCNCNCNCNCNCNCNCNCNCNCNCNCNCNCNCNCNCNCNCNCNCNHCNHC3NOCH3C3NOCH3C3NOCH3C3NOCH3C3NOCH3C3NOCH3CNHCNHC3NOCH3C3NOCH3CNHCNHC3NOCH3C3NOCH3C3NOCH3C3NOCH3CNHCNHC3NOCH3C3NOCH3CNHCNHC3NOCH3C3NOCH3C3NOCH3C3NOCH3CNHCNH
_chemical_formula_sum              "C420 N240 O60 H240"
_cell_length_a       83.7405
_cell_length_b       44.1104
_cell_length_c       14.9073
_cell_angle_alpha    90
_cell_angle_beta     90
_cell_angle_gamma    90

_space_group_name_H-M_alt    "P 1"
_space_group_IT_number       1

loop_
  _space_group_symop_operation_xyz
  'x, y, z'

loop_
  _atom_site_type_symbol
  _atom_site_label
  _atom_site_symmetry_multiplicity
  _atom_site_fract_x
  _atom_site_fract_y
  _atom_site_fract_z
  _atom_site_occupancy
  C   C1        1.0  0.25777  0.10156  0.30215  1.0000
  C   C2        1.0  0.27004  0.11989  0.34056  1.0000
  C   C3        1.0  0.23751  0.13480  0.35397  1.0000
  N   N1        1.0  0.24212  0.10943  0.31000  1.0000
  O   O1        1.0  0.26089  0.07514  0.25730  1.0000
  C   C4        1.0  0.26354  0.07961  0.16291  1.0000
  H   H1        1.0  0.25302  0.08930  0.13027  1.0000
  H   H2        1.0  0.26590  0.05757  0.13263  1.0000
  H   H3        1.0  0.27388  0.09416  0.15064  1.0000
  C   C5        1.0  0.74873  0.40610  0.30017  1.0000
  C   C6        1.0  0.73644  0.38800  0.33930  1.0000
  C   C7        1.0  0.76897  0.37329  0.35447  1.0000
  N   N2        1.0  0.76438  0.39834  0.30884  1.0000
  O   O2        1.0  0.74561  0.43223  0.25385  1.0000
  C   C8        1.0  0.74297  0.42716  0.15972  1.0000
  H   H4        1.0  0.75348  0.41725  0.12764  1.0000
  H   H5        1.0  0.74061  0.44901  0.12820  1.0000
  H   H6        1.0  0.73262  0.41255  0.14827  1.0000
  C   C9        1.0  0.74153  0.14724  0.31191  1.0000
  N   N3        1.0  0.75719  0.15387  0.30028  1.0000
  H   H7        1.0  0.73320  0.16046  0.28055  1.0000
  C   C10       1.0  0.26508  0.36112  0.31190  1.0000
  N   N4        1.0  0.24940  0.35445  0.30115  1.0000
  H   H8        1.0  0.27336  0.34791  0.28013  1.0000
  C   C11       1.0  0.31578  0.01842  0.36025  1.0000
  N   N5        1.0  0.31551  0.48786  0.35616  1.0000
  H   H9        1.0  0.32558  0.02939  0.33541  1.0000
  C   C12       1.0  0.69101  0.48993  0.35838  1.0000
  N   N6        1.0  0.69127  0.02049  0.35515  1.0000
  H   H10       1.0  0.68121  0.47902  0.33319  1.0000
  C   C13       1.0  0.78706  0.27005  0.29549  1.0000
  N   N7        1.0  0.78757  0.23964  0.28738  1.0000
  H   H11       1.0  0.77709  0.28108  0.27309  1.0000
  C   C14       1.0  0.21967  0.23825  0.29772  1.0000
  N   N8        1.0  0.21923  0.26869  0.29078  1.0000
  H   H12       1.0  0.22986  0.22736  0.27793  1.0000
  C   C15       1.0  0.34954  0.15833  0.30492  1.0000
  C   C16       1.0  0.36186  0.14289  0.35213  1.0000
  C   C17       1.0  0.32960  0.12687  0.37066  1.0000
  N   N9        1.0  0.33398  0.14969  0.31462  1.0000
  O   O3        1.0  0.35284  0.18092  0.24483  1.0000
  C   C18       1.0  0.35529  0.16986  0.15503  1.0000
  H   H13       1.0  0.36544  0.15432  0.15156  1.0000
  H   H14       1.0  0.35786  0.18921  0.11191  1.0000
  H   H15       1.0  0.34462  0.15856  0.12921  1.0000
  C   C19       1.0  0.65702  0.34890  0.30763  1.0000
  C   C20       1.0  0.64456  0.36545  0.35027  1.0000
  C   C21       1.0  0.67678  0.38191  0.36807  1.0000
  N   N10       1.0  0.67256  0.35771  0.31695  1.0000
  O   O4        1.0  0.65393  0.32471  0.25289  1.0000
  C   C22       1.0  0.65173  0.33321  0.16051  1.0000
  H   H16       1.0  0.64158  0.34854  0.15234  1.0000
  H   H17       1.0  0.64931  0.31272  0.12203  1.0000
  H   H18       1.0  0.66247  0.34383  0.13304  1.0000
  C   C23       1.0  0.65009  0.11751  0.28716  1.0000
  N   N11       1.0  0.66572  0.10986  0.28779  1.0000
  H   H19       1.0  0.64219  0.10281  0.25816  1.0000
  C   C24       1.0  0.35645  0.39073  0.28293  1.0000
  N   N12       1.0  0.34082  0.39841  0.28418  1.0000
  H   H20       1.0  0.36431  0.40538  0.25343  1.0000
  C   C25       1.0  0.85640  0.36675  0.30097  1.0000
  C   C26       1.0  0.86124  0.39420  0.34183  1.0000
  C   C27       1.0  0.82879  0.37720  0.33213  1.0000
  N   N13       1.0  0.84073  0.35933  0.29964  1.0000
  O   O5        1.0  0.86683  0.34613  0.26536  1.0000
  C   C28       1.0  0.86915  0.35000  0.17044  1.0000
  H   H21       1.0  0.85801  0.34671  0.13347  1.0000
  H   H22       1.0  0.87767  0.33295  0.14783  1.0000
  H   H23       1.0  0.87407  0.37235  0.15486  1.0000
  C   C29       1.0  0.15015  0.14098  0.29789  1.0000
  C   C30       1.0  0.14529  0.11395  0.34103  1.0000
  C   C31       1.0  0.17774  0.13071  0.32999  1.0000
  N   N14       1.0  0.16582  0.14833  0.29598  1.0000
  O   O6        1.0  0.13972  0.16125  0.26049  1.0000
  C   C32       1.0  0.13740  0.15641  0.16597  1.0000
  H   H24       1.0  0.14854  0.15927  0.12870  1.0000
  H   H25       1.0  0.12889  0.17324  0.14185  1.0000
  H   H26       1.0  0.13246  0.13392  0.15243  1.0000
  C   C33       1.0  0.14938  0.36498  0.31278  1.0000
  N   N15       1.0  0.16494  0.35733  0.30757  1.0000
  H   H27       1.0  0.14119  0.35015  0.28705  1.0000
  C   C34       1.0  0.85722  0.14337  0.30853  1.0000
  N   N16       1.0  0.84165  0.15098  0.30385  1.0000
  H   H28       1.0  0.86537  0.15823  0.28258  1.0000
  C   C35       1.0  0.06460  0.16846  0.34020  1.0000
  N   N17       1.0  0.07390  0.14282  0.34259  1.0000
  H   H29       1.0  0.05251  0.16573  0.33653  1.0000
  C   C36       1.0  0.94198  0.34000  0.34074  1.0000
  N   N18       1.0  0.93266  0.36560  0.34314  1.0000
  H   H30       1.0  0.95408  0.34275  0.33681  1.0000
  C   C37       1.0  0.91846  0.20063  0.31224  1.0000
  C   C38       1.0  0.93528  0.20077  0.32467  1.0000
  C   C39       1.0  0.91667  0.14663  0.33156  1.0000
  N   N19       1.0  0.91012  0.17441  0.31775  1.0000
  O   O7        1.0  0.90955  0.22582  0.29435  1.0000
  C   C40       1.0  0.90682  0.23056  0.20010  1.0000
  H   H31       1.0  0.91805  0.23363  0.16378  1.0000
  H   H32       1.0  0.89976  0.25115  0.19232  1.0000
  H   H33       1.0  0.90014  0.21178  0.17049  1.0000
  C   C41       1.0  0.08804  0.30793  0.31754  1.0000
  C   C42       1.0  0.07124  0.30780  0.33102  1.0000
  C   C43       1.0  0.08993  0.36185  0.33806  1.0000
  N   N20       1.0  0.09642  0.33409  0.32320  1.0000
  O   O8        1.0  0.09690  0.28281  0.29800  1.0000
  C   C44       1.0  0.09948  0.27856  0.20341  1.0000
  H   H34       1.0  0.08819  0.27573  0.16748  1.0000
  H   H35       1.0  0.10651  0.25799  0.19432  1.0000
  H   H36       1.0  0.10614  0.29746  0.17436  1.0000
  C   C45       1.0  0.56415  0.41978  0.33466  1.0000
  N   N21       1.0  0.57342  0.39414  0.33616  1.0000
  H   H37       1.0  0.55210  0.41715  0.32696  1.0000
  C   C46       1.0  0.44226  0.08855  0.33651  1.0000
  N   N22       1.0  0.43297  0.11415  0.33819  1.0000
  H   H38       1.0  0.45430  0.09121  0.32874  1.0000
  C   C47       1.0  0.41844  0.44999  0.30570  1.0000
  C   C48       1.0  0.43527  0.44976  0.31782  1.0000
  C   C49       1.0  0.41653  0.39583  0.31790  1.0000
  N   N23       1.0  0.41004  0.42381  0.30766  1.0000
  O   O9        1.0  0.40956  0.47551  0.29167  1.0000
  C   C50       1.0  0.40667  0.48168  0.19831  1.0000
  H   H39       1.0  0.41783  0.48512  0.16167  1.0000
  H   H40       1.0  0.39967  0.50247  0.19366  1.0000
  H   H41       1.0  0.39985  0.46345  0.16674  1.0000
  C   C51       1.0  0.58798  0.05841  0.31091  1.0000
  C   C52       1.0  0.57116  0.05871  0.32386  1.0000
  C   C53       1.0  0.59001  0.11250  0.32429  1.0000
  N   N24       1.0  0.59644  0.08452  0.31311  1.0000
  O   O10       1.0  0.59681  0.03292  0.29534  1.0000
  C   C54       1.0  0.59961  0.02726  0.20161  1.0000
  H   H42       1.0  0.58841  0.02410  0.16510  1.0000
  H   H43       1.0  0.60656  0.00645  0.19575  1.0000
  H   H44       1.0  0.60644  0.04561  0.17076  1.0000
  C   C55       1.0  0.09280  0.01869  0.36029  1.0000
  N   N25       1.0  0.09257  0.48752  0.35835  1.0000
  H   H45       1.0  0.08257  0.03003  0.34378  1.0000
  C   C56       1.0  0.91377  0.48961  0.35694  1.0000
  N   N26       1.0  0.91404  0.02077  0.35415  1.0000
  H   H46       1.0  0.92399  0.47816  0.34098  1.0000
  C   C57       1.0  0.59253  0.26959  0.34115  1.0000
  N   N27       1.0  0.59230  0.23841  0.33929  1.0000
  H   H47       1.0  0.58206  0.28093  0.33085  1.0000
  C   C58       1.0  0.41395  0.23855  0.33867  1.0000
  N   N28       1.0  0.41423  0.26972  0.33569  1.0000
  H   H48       1.0  0.42440  0.22711  0.32859  1.0000
  C   C59       1.0  0.99555  0.22795  0.31160  1.0000
  C   C60       1.0  0.98648  0.25446  0.33121  1.0000
  C   C61       1.0  0.02042  0.25362  0.33484  1.0000
  N   N29       1.0  0.01182  0.22836  0.31521  1.0000
  O   O11       1.0  0.98867  0.20092  0.28854  1.0000
  C   C62       1.0  0.98736  0.19682  0.19302  1.0000
  H   H49       1.0  0.98004  0.21451  0.16228  1.0000
  H   H50       1.0  0.98161  0.17505  0.18070  1.0000
  H   H51       1.0  0.99911  0.19645  0.16104  1.0000
  C   C63       1.0  0.49573  0.97768  0.30615  1.0000
  C   C64       1.0  0.48648  0.00389  0.32604  1.0000
  C   C65       1.0  0.52030  0.00433  0.32879  1.0000
  N   N30       1.0  0.51198  0.97871  0.30944  1.0000
  O   O12       1.0  0.48908  0.95041  0.28349  1.0000
  C   C66       1.0  0.48777  0.44616  0.18804  1.0000
  H   H52       1.0  0.48029  0.96359  0.15721  1.0000
  H   H53       1.0  0.48220  0.92421  0.17601  1.0000
  H   H54       1.0  0.49951  0.44612  0.15591  1.0000
  C   C67       1.0  0.31427  0.11351  0.37009  1.0000
  N   N31       1.0  0.29976  0.12686  0.35294  1.0000
  C   C68       1.0  0.28606  0.10970  0.34973  1.0000
  N   N32       1.0  0.28738  0.07966  0.36521  1.0000
  C   C69       1.0  0.30137  0.06592  0.38214  1.0000
  N   N33       1.0  0.31459  0.08315  0.38314  1.0000
  C   C70       1.0  0.69221  0.39496  0.36795  1.0000
  N   N34       1.0  0.70668  0.38140  0.35124  1.0000
  C   C71       1.0  0.72046  0.39837  0.34834  1.0000
  N   N35       1.0  0.71927  0.42844  0.36380  1.0000
  C   C72       1.0  0.70532  0.44235  0.38038  1.0000
  N   N36       1.0  0.69205  0.42531  0.38103  1.0000
  C   C73       1.0  0.69255  0.11420  0.33920  1.0000
  N   N37       1.0  0.70722  0.12813  0.34518  1.0000
  C   C74       1.0  0.72081  0.11169  0.36396  1.0000
  N   N38       1.0  0.71904  0.08158  0.37614  1.0000
  C   C75       1.0  0.70490  0.06741  0.37223  1.0000
  N   N39       1.0  0.69187  0.08387  0.35269  1.0000
  C   C76       1.0  0.31410  0.39413  0.33712  1.0000
  N   N40       1.0  0.29944  0.38020  0.34361  1.0000
  C   C77       1.0  0.28588  0.39660  0.36354  1.0000
  N   N41       1.0  0.28769  0.42669  0.37600  1.0000
  C   C78       1.0  0.30183  0.44086  0.37164  1.0000
  N   N42       1.0  0.31482  0.42443  0.35116  1.0000
  C   C79       1.0  0.81323  0.36457  0.33700  1.0000
  N   N43       1.0  0.79878  0.37911  0.34543  1.0000
  C   C80       1.0  0.78486  0.36269  0.35242  1.0000
  N   N44       1.0  0.78580  0.33215  0.34914  1.0000
  C   C81       1.0  0.79972  0.31733  0.34089  1.0000
  N   N45       1.0  0.81313  0.33388  0.33470  1.0000
  C   C82       1.0  0.19328  0.14338  0.33458  1.0000
  N   N46       1.0  0.20772  0.12890  0.34395  1.0000
  C   C83       1.0  0.22161  0.14539  0.35105  1.0000
  N   N47       1.0  0.22064  0.17592  0.34735  1.0000
  C   C84       1.0  0.20672  0.19071  0.33819  1.0000
  N   N48       1.0  0.19335  0.17405  0.33176  1.0000
  C   C85       1.0  0.19281  0.36259  0.33326  1.0000
  N   N49       1.0  0.20736  0.37700  0.33916  1.0000
  C   C86       1.0  0.22137  0.36091  0.32944  1.0000
  N   N50       1.0  0.22041  0.33060  0.31760  1.0000
  C   C87       1.0  0.20640  0.31592  0.31407  1.0000
  N   N51       1.0  0.19293  0.33210  0.32268  1.0000
  C   C88       1.0  0.81382  0.14566  0.33050  1.0000
  N   N52       1.0  0.79928  0.13123  0.33637  1.0000
  C   C89       1.0  0.78527  0.14731  0.32697  1.0000
  N   N53       1.0  0.78621  0.17766  0.31583  1.0000
  C   C90       1.0  0.80022  0.19234  0.31244  1.0000
  N   N54       1.0  0.81370  0.17618  0.32066  1.0000
  C   C91       1.0  0.10094  0.11903  0.34914  1.0000
  N   N55       1.0  0.09726  0.08873  0.35790  1.0000
  C   C92       1.0  0.10900  0.06700  0.36602  1.0000
  N   N56       1.0  0.12432  0.07704  0.36048  1.0000
  C   C93       1.0  0.12883  0.10604  0.34939  1.0000
  N   N57       1.0  0.11676  0.12636  0.34498  1.0000
  C   C94       1.0  0.90560  0.38931  0.34937  1.0000
  N   N58       1.0  0.90927  0.41964  0.35701  1.0000
  C   C95       1.0  0.89753  0.44138  0.36448  1.0000
  N   N59       1.0  0.88220  0.43130  0.35952  1.0000
  C   C96       1.0  0.87769  0.40224  0.34957  1.0000
  N   N60       1.0  0.88978  0.38194  0.34571  1.0000
  C   C97       1.0  0.90612  0.12165  0.33969  1.0000
  N   N61       1.0  0.91023  0.09164  0.34971  1.0000
  C   C98       1.0  0.89875  0.06972  0.36143  1.0000
  N   N62       1.0  0.88324  0.07911  0.36206  1.0000
  C   C99       1.0  0.87839  0.10795  0.35134  1.0000
  N   N63       1.0  0.89023  0.12852  0.33987  1.0000
  C   C100      1.0  0.10053  0.38677  0.34574  1.0000
  N   N64       1.0  0.09643  0.41678  0.35561  1.0000
  C   C101      1.0  0.10792  0.43869  0.36680  1.0000
  N   N65       1.0  0.12344  0.42931  0.36701  1.0000
  C   C102      1.0  0.12827  0.40045  0.35640  1.0000
  N   N66       1.0  0.11642  0.37987  0.34542  1.0000
  C   C103      1.0  0.60040  0.37045  0.34422  1.0000
  N   N67       1.0  0.59674  0.33996  0.34381  1.0000
  C   C104      1.0  0.60853  0.31817  0.34623  1.0000
  N   N68       1.0  0.62376  0.32863  0.34497  1.0000
  C   C105      1.0  0.62818  0.35777  0.34438  1.0000
  N   N69       1.0  0.61618  0.37818  0.34602  1.0000
  C   C106      1.0  0.40598  0.13776  0.34590  1.0000
  N   N70       1.0  0.40965  0.16823  0.34433  1.0000
  C   C107      1.0  0.39788  0.19006  0.34602  1.0000
  N   N71       1.0  0.38264  0.17964  0.34517  1.0000
  C   C108      1.0  0.37823  0.15049  0.34583  1.0000
  N   N72       1.0  0.39020  0.13004  0.34820  1.0000
  C   C109      1.0  0.40594  0.37085  0.32195  1.0000
  N   N73       1.0  0.41015  0.34083  0.33038  1.0000
  C   C110      1.0  0.39873  0.31865  0.33806  1.0000
  N   N74       1.0  0.38321  0.32789  0.33668  1.0000
  C   C111      1.0  0.37827  0.35669  0.32746  1.0000
  N   N75       1.0  0.39002  0.37763  0.31988  1.0000
  C   C112      1.0  0.60065  0.13741  0.32787  1.0000
  N   N76       1.0  0.59644  0.16743  0.33591  1.0000
  C   C113      1.0  0.60787  0.18960  0.34287  1.0000
  N   N77       1.0  0.62339  0.18038  0.34120  1.0000
  C   C114      1.0  0.62833  0.15155  0.33237  1.0000
  N   N78       1.0  0.61657  0.13060  0.32541  1.0000
  C   C115      1.0  0.06216  0.28043  0.33317  1.0000
  N   N79       1.0  0.04588  0.27963  0.33510  1.0000
  C   C116      1.0  0.03743  0.25311  0.33600  1.0000
  N   N80       1.0  0.04581  0.22642  0.33702  1.0000
  C   C117      1.0  0.06214  0.22540  0.33800  1.0000
  N   N81       1.0  0.06954  0.25291  0.33513  1.0000
  C   C118      1.0  0.94431  0.22817  0.32771  1.0000
  N   N82       1.0  0.96056  0.22903  0.32898  1.0000
  C   C119      1.0  0.96925  0.25528  0.33187  1.0000
  N   N83       1.0  0.96079  0.28191  0.33600  1.0000
  C   C120      1.0  0.94446  0.28307  0.33692  1.0000
  N   N84       1.0  0.93698  0.25568  0.33194  1.0000
  C   C121      1.0  0.56196  0.03154  0.32787  1.0000
  N   N85       1.0  0.54567  0.03083  0.32880  1.0000
  C   C122      1.0  0.53725  0.00427  0.33033  1.0000
  N   N86       1.0  0.54557  0.47759  0.33280  1.0000
  C   C123      1.0  0.56184  0.47663  0.33516  1.0000
  N   N87       1.0  0.56930  0.00403  0.33174  1.0000
  C   C124      1.0  0.44441  0.47699  0.32293  1.0000
  N   N88       1.0  0.46067  0.47782  0.32332  1.0000
  C   C125      1.0  0.46930  0.50413  0.32715  1.0000
  N   N89       1.0  0.46086  0.03068  0.33274  1.0000
  C   C126      1.0  0.44458  0.03173  0.33496  1.0000
  N   N90       1.0  0.43709  0.50442  0.32921  1.0000
  C   C127      1.0  0.26495  0.14660  0.38356  1.0000
  N   N91       1.0  0.24916  0.15308  0.38828  1.0000
  H   H55       1.0  0.27288  0.16071  0.41482  1.0000
  C   C128      1.0  0.74152  0.36166  0.38428  1.0000
  N   N92       1.0  0.75731  0.35523  0.38971  1.0000
  H   H56       1.0  0.73357  0.34778  0.41628  1.0000
  C   C129      1.0  0.74993  0.10483  0.40126  1.0000
  C   C130      1.0  0.73704  0.12169  0.36264  1.0000
  C   C131      1.0  0.76936  0.13691  0.33490  1.0000
  N   N93       1.0  0.76540  0.11270  0.38593  1.0000
  O   O13       1.0  0.74783  0.07946  0.45280  1.0000
  C   C132      1.0  0.74601  0.08604  0.54669  1.0000
  H   H57       1.0  0.75663  0.09714  0.57380  1.0000
  H   H58       1.0  0.74436  0.06464  0.58210  1.0000
  H   H59       1.0  0.73553  0.10020  0.55919  1.0000
  C   C133      1.0  0.25681  0.40342  0.40205  1.0000
  C   C134      1.0  0.26964  0.38662  0.36263  1.0000
  C   C135      1.0  0.23728  0.37136  0.33659  1.0000
  N   N94       1.0  0.24132  0.39553  0.38755  1.0000
  O   O14       1.0  0.25900  0.42870  0.45388  1.0000
  C   C136      1.0  0.26097  0.42195  0.54758  1.0000
  H   H60       1.0  0.25040  0.41079  0.57505  1.0000
  H   H61       1.0  0.26268  0.44328  0.58324  1.0000
  H   H62       1.0  0.27147  0.40777  0.55930  1.0000
  C   C137      1.0  0.28901  0.01723  0.42148  1.0000
  C   C138      1.0  0.30217  0.03441  0.39035  1.0000
  C   C139      1.0  0.30251  0.47198  0.38295  1.0000
  N   N95       1.0  0.28953  0.48675  0.41504  1.0000
  O   O15       1.0  0.27524  0.02976  0.45409  1.0000
  C   C140      1.0  0.27568  0.03428  0.54960  1.0000
  H   H63       1.0  0.27712  0.01282  0.58534  1.0000
  H   H64       1.0  0.26436  0.04432  0.57005  1.0000
  H   H65       1.0  0.28526  0.04983  0.56891  1.0000
  C   C141      1.0  0.71770  0.49093  0.42073  1.0000
  C   C142      1.0  0.70457  0.47385  0.38882  1.0000
  C   C143      1.0  0.70424  0.03628  0.38284  1.0000
  N   N96       1.0  0.71719  0.02143  0.41503  1.0000
  O   O16       1.0  0.73139  0.47827  0.45395  1.0000
  C   C144      1.0  0.73075  0.47351  0.54932  1.0000
  H   H66       1.0  0.72926  0.49489  0.58544  1.0000
  H   H67       1.0  0.74202  0.46339  0.57028  1.0000
  H   H68       1.0  0.72113  0.45795  0.56768  1.0000
  C   C145      1.0  0.81337  0.26848  0.36271  1.0000
  C   C146      1.0  0.80011  0.28577  0.33355  1.0000
  C   C147      1.0  0.80057  0.22367  0.31348  1.0000
  N   N97       1.0  0.81316  0.23809  0.35145  1.0000
  O   O17       1.0  0.82634  0.28077  0.40518  1.0000
  C   C148      1.0  0.82462  0.28155  0.50122  1.0000
  H   H69       1.0  0.81441  0.29539  0.52154  1.0000
  H   H70       1.0  0.83537  0.29170  0.52947  1.0000
  H   H71       1.0  0.82335  0.25875  0.52907  1.0000
  C   C149      1.0  0.19278  0.23950  0.35712  1.0000
  C   C150      1.0  0.20631  0.22232  0.33134  1.0000
  C   C151      1.0  0.20602  0.28457  0.31381  1.0000
  N   N98       1.0  0.19309  0.26995  0.34723  1.0000
  O   O18       1.0  0.17936  0.22706  0.39454  1.0000
  C   C152      1.0  0.17997  0.22599  0.49098  1.0000
  H   H72       1.0  0.18995  0.21215  0.51461  1.0000
  H   H73       1.0  0.16894  0.21571  0.51496  1.0000
  H   H74       1.0  0.18087  0.24872  0.51981  1.0000
  C   C153      1.0  0.35702  0.11944  0.41003  1.0000
  N   N99       1.0  0.34140  0.11221  0.41635  1.0000
  H   H75       1.0  0.36507  0.10736  0.44716  1.0000
  C   C154      1.0  0.64926  0.39029  0.40328  1.0000
  N   N100      1.0  0.66486  0.39760  0.40950  1.0000
  H   H76       1.0  0.64113  0.40324  0.43717  1.0000
  C   C155      1.0  0.65720  0.16279  0.36714  1.0000
  C   C156      1.0  0.64493  0.14443  0.32912  1.0000
  C   C157      1.0  0.67737  0.12744  0.32466  1.0000
  N   N101      1.0  0.67278  0.15365  0.36478  1.0000
  O   O19       1.0  0.65394  0.18903  0.41258  1.0000
  C   C158      1.0  0.65236  0.18455  0.50780  1.0000
  H   H77       1.0  0.64249  0.16921  0.52349  1.0000
  H   H78       1.0  0.64984  0.20637  0.53868  1.0000
  H   H79       1.0  0.66339  0.17574  0.53723  1.0000
  C   C159      1.0  0.34944  0.34551  0.36353  1.0000
  C   C160      1.0  0.36166  0.36382  0.32479  1.0000
  C   C161      1.0  0.32923  0.38084  0.32165  1.0000
  N   N102      1.0  0.33387  0.35467  0.36180  1.0000
  O   O20       1.0  0.35275  0.31931  0.40906  1.0000
  C   C162      1.0  0.35445  0.32389  0.50419  1.0000
  H   H80       1.0  0.36434  0.33924  0.51938  1.0000
  H   H81       1.0  0.35699  0.30211  0.53517  1.0000
  H   H82       1.0  0.34345  0.33276  0.53393  1.0000
  C   C163      1.0  0.84866  0.41314  0.37267  1.0000
  N   N103      1.0  0.83308  0.40419  0.36868  1.0000
  H   H83       1.0  0.85108  0.43340  0.40268  1.0000
  C   C164      1.0  0.15784  0.09524  0.37343  1.0000
  N   N104      1.0  0.17343  0.10409  0.36877  1.0000
  H   H84       1.0  0.15539  0.07528  0.40506  1.0000
  C   C165      1.0  0.15759  0.41112  0.38425  1.0000
  C   C166      1.0  0.14481  0.39267  0.35232  1.0000
  C   C167      1.0  0.17715  0.37494  0.33806  1.0000
  N   N105      1.0  0.17313  0.40187  0.37610  1.0000
  O   O21       1.0  0.15496  0.43838  0.42540  1.0000
  C   C168      1.0  0.15400  0.43592  0.52149  1.0000
  H   H85       1.0  0.14406  0.42144  0.54207  1.0000
  H   H86       1.0  0.15196  0.45850  0.54875  1.0000
  H   H87       1.0  0.16511  0.42720  0.55005  1.0000
  C   C169      1.0  0.84911  0.09719  0.38016  1.0000
  C   C170      1.0  0.86184  0.11569  0.34788  1.0000
  C   C171      1.0  0.82949  0.13333  0.33471  1.0000
  N   N106      1.0  0.83356  0.10639  0.37254  1.0000
  O   O22       1.0  0.85180  0.06992  0.42116  1.0000
  C   C172      1.0  0.85283  0.07236  0.51724  1.0000
  H   H88       1.0  0.86279  0.08683  0.53761  1.0000
  H   H89       1.0  0.85488  0.04977  0.54440  1.0000
  H   H90       1.0  0.84174  0.08108  0.54608  1.0000
  C   C173      1.0  0.08827  0.19833  0.34937  1.0000
  C   C174      1.0  0.07133  0.19810  0.34195  1.0000
  C   C175      1.0  0.09017  0.14387  0.34576  1.0000
  N   N107      1.0  0.09663  0.17208  0.34930  1.0000
  O   O23       1.0  0.09734  0.22384  0.35879  1.0000
  C   C176      1.0  0.10155  0.23022  0.45054  1.0000
  H   H91       1.0  0.09094  0.23387  0.49185  1.0000
  H   H92       1.0  0.10865  0.25093  0.45173  1.0000
  H   H93       1.0  0.10875  0.21202  0.47952  1.0000
  C   C177      1.0  0.91834  0.31006  0.34973  1.0000
  C   C178      1.0  0.93527  0.31035  0.34212  1.0000
  C   C179      1.0  0.91639  0.36450  0.34638  1.0000
  N   N108      1.0  0.90995  0.33628  0.34988  1.0000
  O   O24       1.0  0.90927  0.28452  0.35865  1.0000
  C   C180      1.0  0.90519  0.27776  0.45033  1.0000
  H   H94       1.0  0.91586  0.27394  0.49103  1.0000
  H   H95       1.0  0.89809  0.25705  0.45108  1.0000
  H   H96       1.0  0.89804  0.29585  0.48027  1.0000
  C   C181      1.0  0.94212  0.17144  0.33484  1.0000
  N   N109      1.0  0.93289  0.14582  0.33887  1.0000
  H   H97       1.0  0.95416  0.16905  0.34333  1.0000
  C   C182      1.0  0.06447  0.33713  0.34256  1.0000
  N   N110      1.0  0.07373  0.36271  0.34644  1.0000
  H   H98       1.0  0.05245  0.33955  0.35169  1.0000
  C   C183      1.0  0.58773  0.44957  0.35273  1.0000
  C   C184      1.0  0.57091  0.44931  0.34044  1.0000
  C   C185      1.0  0.58962  0.39525  0.34384  1.0000
  N   N111      1.0  0.59606  0.42335  0.35230  1.0000
  O   O25       1.0  0.59672  0.47502  0.36593  1.0000
  C   C186      1.0  0.59986  0.48124  0.45904  1.0000
  H   H99       1.0  0.58880  0.48478  0.49655  1.0000
  H   H100      1.0  0.60691  0.50199  0.46299  1.0000
  H   H101      1.0  0.60673  0.46300  0.49018  1.0000
  C   C187      1.0  0.41869  0.05866  0.35389  1.0000
  C   C188      1.0  0.43551  0.05900  0.34163  1.0000
  C   C189      1.0  0.41676  0.11298  0.34580  1.0000
  N   N112      1.0  0.41034  0.08485  0.35387  1.0000
  O   O26       1.0  0.40972  0.03314  0.36612  1.0000
  C   C190      1.0  0.40664  0.02642  0.45899  1.0000
  H   H102      1.0  0.41773  0.02268  0.49607  1.0000
  H   H103      1.0  0.39960  0.00566  0.46214  1.0000
  H   H104      1.0  0.39980  0.04450  0.49113  1.0000
  C   C191      1.0  0.44204  0.42028  0.32485  1.0000
  N   N113      1.0  0.43274  0.39473  0.32565  1.0000
  H   H105      1.0  0.45408  0.41766  0.33303  1.0000
  C   C192      1.0  0.56447  0.08821  0.33218  1.0000
  N   N114      1.0  0.57382  0.11370  0.33292  1.0000
  H   H106      1.0  0.55245  0.09090  0.34083  1.0000
  C   C193      1.0  0.12044  0.01648  0.39956  1.0000
  C   C194      1.0  0.10717  0.03503  0.37580  1.0000
  C   C195      1.0  0.10591  0.47049  0.37388  1.0000
  N   N115      1.0  0.11927  0.48617  0.39524  1.0000
  O   O27       1.0  0.13521  0.02640  0.42578  1.0000
  C   C196      1.0  0.13662  0.02960  0.52152  1.0000
  H   H107      1.0  0.12840  0.04682  0.54713  1.0000
  H   H108      1.0  0.14877  0.03685  0.53678  1.0000
  H   H109      1.0  0.13447  0.00816  0.55606  1.0000
  C   C197      1.0  0.88613  0.49205  0.39616  1.0000
  C   C198      1.0  0.89938  0.47338  0.37309  1.0000
  C   C199      1.0  0.90073  0.03792  0.36917  1.0000
  N   N116      1.0  0.88735  0.02234  0.39099  1.0000
  O   O28       1.0  0.87135  0.48230  0.42275  1.0000
  C   C200      1.0  0.86999  0.47917  0.51853  1.0000
  H   H110      1.0  0.87815  0.46183  0.54404  1.0000
  H   H111      1.0  0.85782  0.47213  0.53409  1.0000
  H   H112      1.0  0.87227  0.50058  0.55295  1.0000
  C   C201      1.0  0.62070  0.26744  0.36705  1.0000
  C   C202      1.0  0.60704  0.28600  0.35112  1.0000
  C   C203      1.0  0.60582  0.22142  0.34876  1.0000
  N   N117      1.0  0.61943  0.23720  0.36310  1.0000
  O   O29       1.0  0.63601  0.27696  0.38336  1.0000
  C   C204      1.0  0.63958  0.28011  0.47732  1.0000
  H   H113      1.0  0.63191  0.29712  0.50913  1.0000
  H   H114      1.0  0.65193  0.28763  0.48366  1.0000
  H   H115      1.0  0.63834  0.25863  0.51261  1.0000
  C   C205      1.0  0.38581  0.24093  0.36532  1.0000
  C   C206      1.0  0.39943  0.22224  0.34968  1.0000
  C   C207      1.0  0.40074  0.28683  0.34488  1.0000
  N   N118      1.0  0.38712  0.27115  0.36027  1.0000
  O   O30       1.0  0.37053  0.23153  0.38296  1.0000
  C   C208      1.0  0.36720  0.22857  0.47726  1.0000
  H   H116      1.0  0.37489  0.21150  0.50867  1.0000
  H   H117      1.0  0.35483  0.22122  0.48473  1.0000
  H   H118      1.0  0.36862  0.25006  0.51216  1.0000
  C   C209      1.0  0.99577  0.28057  0.34999  1.0000
  N   N119      1.0  0.01203  0.27947  0.35108  1.0000
  H   H119      1.0  0.99045  0.30084  0.36424  1.0000
  C   C210      1.0  0.49550  0.53036  0.34474  1.0000
  N   N120      1.0  0.51174  0.52989  0.34542  1.0000
  H   H120      1.0  0.48999  0.55044  0.35924  1.0000
  C   C211      1.0  0.25777  0.60156  0.30215  1.0000
  C   C212      1.0  0.27004  0.61989  0.34056  1.0000
  C   C213      1.0  0.23751  0.63480  0.35397  1.0000
  N   N121      1.0  0.24212  0.60943  0.31000  1.0000
  O   O31       1.0  0.26089  0.57514  0.25730  1.0000
  C   C214      1.0  0.26354  0.57961  0.16291  1.0000
  H   H121      1.0  0.25302  0.58930  0.13027  1.0000
  H   H122      1.0  0.26590  0.55756  0.13263  1.0000
  H   H123      1.0  0.27388  0.59416  0.15064  1.0000
  C   C215      1.0  0.74873  0.90610  0.30017  1.0000
  C   C216      1.0  0.73644  0.88800  0.33930  1.0000
  C   C217      1.0  0.76897  0.87329  0.35447  1.0000
  N   N122      1.0  0.76438  0.89834  0.30884  1.0000
  O   O32       1.0  0.74561  0.93223  0.25385  1.0000
  C   C218      1.0  0.74297  0.92716  0.15972  1.0000
  H   H124      1.0  0.75348  0.91725  0.12764  1.0000
  H   H125      1.0  0.74061  0.94900  0.12820  1.0000
  H   H126      1.0  0.73262  0.91255  0.14827  1.0000
  C   C219      1.0  0.74153  0.64724  0.31191  1.0000
  N   N123      1.0  0.75719  0.65387  0.30028  1.0000
  H   H127      1.0  0.73320  0.66046  0.28055  1.0000
  C   C220      1.0  0.26508  0.86112  0.31190  1.0000
  N   N124      1.0  0.24940  0.85445  0.30115  1.0000
  H   H128      1.0  0.27336  0.84791  0.28013  1.0000
  C   C221      1.0  0.31578  0.51842  0.36025  1.0000
  N   N125      1.0  0.31551  0.98786  0.35616  1.0000
  H   H129      1.0  0.32558  0.52939  0.33541  1.0000
  C   C222      1.0  0.69101  0.98992  0.35838  1.0000
  N   N126      1.0  0.69127  0.52049  0.35515  1.0000
  H   H130      1.0  0.68121  0.97902  0.33319  1.0000
  C   C223      1.0  0.78706  0.77005  0.29549  1.0000
  N   N127      1.0  0.78757  0.73964  0.28738  1.0000
  H   H131      1.0  0.77709  0.78108  0.27309  1.0000
  C   C224      1.0  0.21967  0.73825  0.29772  1.0000
  N   N128      1.0  0.21923  0.76869  0.29078  1.0000
  H   H132      1.0  0.22986  0.72736  0.27793  1.0000
  C   C225      1.0  0.34954  0.65833  0.30492  1.0000
  C   C226      1.0  0.36186  0.64289  0.35213  1.0000
  C   C227      1.0  0.32960  0.62687  0.37066  1.0000
  N   N129      1.0  0.33398  0.64969  0.31462  1.0000
  O   O33       1.0  0.35284  0.68092  0.24483  1.0000
  C   C228      1.0  0.35529  0.66987  0.15503  1.0000
  H   H133      1.0  0.36544  0.65432  0.15156  1.0000
  H   H134      1.0  0.35786  0.68921  0.11191  1.0000
  H   H135      1.0  0.34462  0.65856  0.12921  1.0000
  C   C229      1.0  0.65702  0.84890  0.30763  1.0000
  C   C230      1.0  0.64456  0.86545  0.35027  1.0000
  C   C231      1.0  0.67678  0.88190  0.36807  1.0000
  N   N130      1.0  0.67256  0.85772  0.31695  1.0000
  O   O34       1.0  0.65393  0.82471  0.25289  1.0000
  C   C232      1.0  0.65173  0.83322  0.16051  1.0000
  H   H136      1.0  0.64158  0.84854  0.15234  1.0000
  H   H137      1.0  0.64931  0.81271  0.12203  1.0000
  H   H138      1.0  0.66247  0.84383  0.13304  1.0000
  C   C233      1.0  0.65009  0.61751  0.28716  1.0000
  N   N131      1.0  0.66572  0.60986  0.28779  1.0000
  H   H139      1.0  0.64219  0.60281  0.25816  1.0000
  C   C234      1.0  0.35645  0.89073  0.28293  1.0000
  N   N132      1.0  0.34082  0.89841  0.28418  1.0000
  H   H140      1.0  0.36431  0.90538  0.25343  1.0000
  C   C235      1.0  0.85640  0.86675  0.30097  1.0000
  C   C236      1.0  0.86124  0.89419  0.34183  1.0000
  C   C237      1.0  0.82879  0.87720  0.33213  1.0000
  N   N133      1.0  0.84073  0.85933  0.29964  1.0000
  O   O35       1.0  0.86683  0.84613  0.26536  1.0000
  C   C238      1.0  0.86915  0.85000  0.17044  1.0000
  H   H141      1.0  0.85801  0.84671  0.13347  1.0000
  H   H142      1.0  0.87767  0.83295  0.14783  1.0000
  H   H143      1.0  0.87407  0.87235  0.15486  1.0000
  C   C239      1.0  0.15015  0.64098  0.29789  1.0000
  C   C240      1.0  0.14529  0.61395  0.34103  1.0000
  C   C241      1.0  0.17774  0.63071  0.32999  1.0000
  N   N134      1.0  0.16582  0.64833  0.29598  1.0000
  O   O36       1.0  0.13972  0.66125  0.26049  1.0000
  C   C242      1.0  0.13740  0.65641  0.16597  1.0000
  H   H144      1.0  0.14854  0.65927  0.12870  1.0000
  H   H145      1.0  0.12889  0.67324  0.14185  1.0000
  H   H146      1.0  0.13246  0.63392  0.15243  1.0000
  C   C243      1.0  0.14938  0.86498  0.31278  1.0000
  N   N135      1.0  0.16494  0.85733  0.30757  1.0000
  H   H147      1.0  0.14119  0.85015  0.28705  1.0000
  C   C244      1.0  0.85722  0.64337  0.30853  1.0000
  N   N136      1.0  0.84165  0.65098  0.30385  1.0000
  H   H148      1.0  0.86537  0.65823  0.28258  1.0000
  C   C245      1.0  0.06460  0.66846  0.34020  1.0000
  N   N137      1.0  0.07390  0.64282  0.34259  1.0000
  H   H149      1.0  0.05251  0.66573  0.33653  1.0000
  C   C246      1.0  0.94198  0.84000  0.34074  1.0000
  N   N138      1.0  0.93266  0.86560  0.34314  1.0000
  H   H150      1.0  0.95408  0.84275  0.33681  1.0000
  C   C247      1.0  0.91846  0.70063  0.31224  1.0000
  C   C248      1.0  0.93528  0.70077  0.32467  1.0000
  C   C249      1.0  0.91667  0.64663  0.33156  1.0000
  N   N139      1.0  0.91012  0.67441  0.31775  1.0000
  O   O37       1.0  0.90955  0.72582  0.29435  1.0000
  C   C250      1.0  0.90682  0.73056  0.20010  1.0000
  H   H151      1.0  0.91805  0.73363  0.16378  1.0000
  H   H152      1.0  0.89976  0.75115  0.19232  1.0000
  H   H153      1.0  0.90014  0.71179  0.17049  1.0000
  C   C251      1.0  0.08804  0.80793  0.31754  1.0000
  C   C252      1.0  0.07124  0.80780  0.33102  1.0000
  C   C253      1.0  0.08993  0.86184  0.33806  1.0000
  N   N140      1.0  0.09642  0.83409  0.32320  1.0000
  O   O38       1.0  0.09690  0.78281  0.29800  1.0000
  C   C254      1.0  0.09948  0.77856  0.20341  1.0000
  H   H154      1.0  0.08819  0.77573  0.16748  1.0000
  H   H155      1.0  0.10651  0.75799  0.19432  1.0000
  H   H156      1.0  0.10614  0.79747  0.17436  1.0000
  C   C255      1.0  0.56415  0.91978  0.33466  1.0000
  N   N141      1.0  0.57342  0.89414  0.33616  1.0000
  H   H157      1.0  0.55210  0.91715  0.32696  1.0000
  C   C256      1.0  0.44226  0.58855  0.33651  1.0000
  N   N142      1.0  0.43297  0.61415  0.33819  1.0000
  H   H158      1.0  0.45430  0.59122  0.32874  1.0000
  C   C257      1.0  0.41844  0.95000  0.30570  1.0000
  C   C258      1.0  0.43527  0.94976  0.31782  1.0000
  C   C259      1.0  0.41653  0.89583  0.31790  1.0000
  N   N143      1.0  0.41004  0.92381  0.30766  1.0000
  O   O39       1.0  0.40956  0.97551  0.29167  1.0000
  C   C260      1.0  0.40667  0.98168  0.19831  1.0000
  H   H159      1.0  0.41783  0.98513  0.16167  1.0000
  H   H160      1.0  0.39967  0.00246  0.19366  1.0000
  H   H161      1.0  0.39985  0.96345  0.16674  1.0000
  C   C261      1.0  0.58798  0.55841  0.31091  1.0000
  C   C262      1.0  0.57116  0.55871  0.32386  1.0000
  C   C263      1.0  0.59001  0.61250  0.32429  1.0000
  N   N144      1.0  0.59644  0.58452  0.31311  1.0000
  O   O40       1.0  0.59681  0.53292  0.29534  1.0000
  C   C264      1.0  0.59961  0.52726  0.20161  1.0000
  H   H162      1.0  0.58841  0.52410  0.16510  1.0000
  H   H163      1.0  0.60656  0.50645  0.19575  1.0000
  H   H164      1.0  0.60644  0.54561  0.17076  1.0000
  C   C265      1.0  0.09280  0.51868  0.36029  1.0000
  N   N145      1.0  0.09257  0.98752  0.35835  1.0000
  H   H165      1.0  0.08257  0.53003  0.34378  1.0000
  C   C266      1.0  0.91377  0.98961  0.35694  1.0000
  N   N146      1.0  0.91404  0.52077  0.35415  1.0000
  H   H166      1.0  0.92399  0.97816  0.34098  1.0000
  C   C267      1.0  0.59253  0.76959  0.34115  1.0000
  N   N147      1.0  0.59230  0.73841  0.33929  1.0000
  H   H167      1.0  0.58206  0.78093  0.33085  1.0000
  C   C268      1.0  0.41395  0.73855  0.33867  1.0000
  N   N148      1.0  0.41423  0.76972  0.33569  1.0000
  H   H168      1.0  0.42440  0.72711  0.32859  1.0000
  C   C269      1.0  0.99555  0.72795  0.31160  1.0000
  C   C270      1.0  0.98648  0.75446  0.33121  1.0000
  C   C271      1.0  0.02042  0.75361  0.33484  1.0000
  N   N149      1.0  0.01182  0.72836  0.31521  1.0000
  O   O41       1.0  0.98867  0.70091  0.28854  1.0000
  C   C272      1.0  0.98736  0.69682  0.19302  1.0000
  H   H169      1.0  0.98004  0.71451  0.16228  1.0000
  H   H170      1.0  0.98161  0.67505  0.18070  1.0000
  H   H171      1.0  0.99911  0.69645  0.16104  1.0000
  C   C273      1.0  0.49573  0.47768  0.30615  1.0000
  C   C274      1.0  0.48648  0.50389  0.32604  1.0000
  C   C275      1.0  0.52030  0.50432  0.32879  1.0000
  N   N150      1.0  0.51198  0.47871  0.30944  1.0000
  O   O42       1.0  0.48908  0.45041  0.28349  1.0000
  C   C276      1.0  0.48777  0.94616  0.18804  1.0000
  H   H172      1.0  0.48029  0.46359  0.15721  1.0000
  H   H173      1.0  0.48220  0.42420  0.17601  1.0000
  H   H174      1.0  0.49951  0.94612  0.15591  1.0000
  C   C277      1.0  0.31427  0.61351  0.37009  1.0000
  N   N151      1.0  0.29976  0.62686  0.35294  1.0000
  C   C278      1.0  0.28606  0.60970  0.34973  1.0000
  N   N152      1.0  0.28738  0.57966  0.36521  1.0000
  C   C279      1.0  0.30137  0.56592  0.38214  1.0000
  N   N153      1.0  0.31459  0.58315  0.38314  1.0000
  C   C280      1.0  0.69221  0.89496  0.36795  1.0000
  N   N154      1.0  0.70668  0.88139  0.35124  1.0000
  C   C281      1.0  0.72046  0.89837  0.34834  1.0000
  N   N155      1.0  0.71927  0.92844  0.36380  1.0000
  C   C282      1.0  0.70532  0.94235  0.38038  1.0000
  N   N156      1.0  0.69205  0.92531  0.38103  1.0000
  C   C283      1.0  0.69255  0.61420  0.33920  1.0000
  N   N157      1.0  0.70722  0.62813  0.34518  1.0000
  C   C284      1.0  0.72081  0.61169  0.36396  1.0000
  N   N158      1.0  0.71904  0.58158  0.37614  1.0000
  C   C285      1.0  0.70490  0.56741  0.37223  1.0000
  N   N159      1.0  0.69187  0.58387  0.35269  1.0000
  C   C286      1.0  0.31410  0.89413  0.33712  1.0000
  N   N160      1.0  0.29944  0.88020  0.34361  1.0000
  C   C287      1.0  0.28588  0.89660  0.36354  1.0000
  N   N161      1.0  0.28769  0.92669  0.37600  1.0000
  C   C288      1.0  0.30183  0.94086  0.37164  1.0000
  N   N162      1.0  0.31482  0.92443  0.35116  1.0000
  C   C289      1.0  0.81323  0.86457  0.33700  1.0000
  N   N163      1.0  0.79878  0.87911  0.34543  1.0000
  C   C290      1.0  0.78486  0.86269  0.35242  1.0000
  N   N164      1.0  0.78580  0.83215  0.34914  1.0000
  C   C291      1.0  0.79972  0.81733  0.34089  1.0000
  N   N165      1.0  0.81313  0.83389  0.33470  1.0000
  C   C292      1.0  0.19328  0.64338  0.33458  1.0000
  N   N166      1.0  0.20772  0.62890  0.34395  1.0000
  C   C293      1.0  0.22161  0.64539  0.35105  1.0000
  N   N167      1.0  0.22064  0.67592  0.34735  1.0000
  C   C294      1.0  0.20672  0.69071  0.33819  1.0000
  N   N168      1.0  0.19335  0.67405  0.33176  1.0000
  C   C295      1.0  0.19281  0.86259  0.33326  1.0000
  N   N169      1.0  0.20736  0.87699  0.33916  1.0000
  C   C296      1.0  0.22137  0.86091  0.32944  1.0000
  N   N170      1.0  0.22041  0.83060  0.31760  1.0000
  C   C297      1.0  0.20640  0.81592  0.31407  1.0000
  N   N171      1.0  0.19293  0.83210  0.32268  1.0000
  C   C298      1.0  0.81382  0.64565  0.33050  1.0000
  N   N172      1.0  0.79928  0.63123  0.33637  1.0000
  C   C299      1.0  0.78527  0.64731  0.32697  1.0000
  N   N173      1.0  0.78621  0.67766  0.31583  1.0000
  C   C300      1.0  0.80022  0.69234  0.31244  1.0000
  N   N174      1.0  0.81370  0.67617  0.32066  1.0000
  C   C301      1.0  0.10094  0.61903  0.34914  1.0000
  N   N175      1.0  0.09726  0.58873  0.35790  1.0000
  C   C302      1.0  0.10900  0.56700  0.36602  1.0000
  N   N176      1.0  0.12432  0.57703  0.36048  1.0000
  C   C303      1.0  0.12883  0.60604  0.34939  1.0000
  N   N177      1.0  0.11676  0.62636  0.34498  1.0000
  C   C304      1.0  0.90560  0.88931  0.34937  1.0000
  N   N178      1.0  0.90927  0.91964  0.35701  1.0000
  C   C305      1.0  0.89753  0.94138  0.36448  1.0000
  N   N179      1.0  0.88220  0.93130  0.35952  1.0000
  C   C306      1.0  0.87769  0.90224  0.34957  1.0000
  N   N180      1.0  0.88978  0.88194  0.34571  1.0000
  C   C307      1.0  0.90612  0.62165  0.33969  1.0000
  N   N181      1.0  0.91023  0.59164  0.34971  1.0000
  C   C308      1.0  0.89875  0.56972  0.36143  1.0000
  N   N182      1.0  0.88324  0.57911  0.36206  1.0000
  C   C309      1.0  0.87839  0.60795  0.35135  1.0000
  N   N183      1.0  0.89023  0.62852  0.33987  1.0000
  C   C310      1.0  0.10053  0.88677  0.34574  1.0000
  N   N184      1.0  0.09643  0.91678  0.35561  1.0000
  C   C311      1.0  0.10792  0.93868  0.36680  1.0000
  N   N185      1.0  0.12344  0.92931  0.36701  1.0000
  C   C312      1.0  0.12827  0.90044  0.35640  1.0000
  N   N186      1.0  0.11642  0.87987  0.34542  1.0000
  C   C313      1.0  0.60040  0.87045  0.34422  1.0000
  N   N187      1.0  0.59674  0.83996  0.34381  1.0000
  C   C314      1.0  0.60853  0.81817  0.34623  1.0000
  N   N188      1.0  0.62376  0.82863  0.34497  1.0000
  C   C315      1.0  0.62818  0.85777  0.34438  1.0000
  N   N189      1.0  0.61618  0.87818  0.34602  1.0000
  C   C316      1.0  0.40598  0.63776  0.34590  1.0000
  N   N190      1.0  0.40965  0.66823  0.34433  1.0000
  C   C317      1.0  0.39788  0.69006  0.34602  1.0000
  N   N191      1.0  0.38264  0.67964  0.34517  1.0000
  C   C318      1.0  0.37823  0.65049  0.34583  1.0000
  N   N192      1.0  0.39020  0.63004  0.34820  1.0000
  C   C319      1.0  0.40594  0.87085  0.32195  1.0000
  N   N193      1.0  0.41015  0.84083  0.33038  1.0000
  C   C320      1.0  0.39873  0.81865  0.33806  1.0000
  N   N194      1.0  0.38321  0.82789  0.33668  1.0000
  C   C321      1.0  0.37827  0.85669  0.32746  1.0000
  N   N195      1.0  0.39002  0.87763  0.31988  1.0000
  C   C322      1.0  0.60065  0.63741  0.32787  1.0000
  N   N196      1.0  0.59644  0.66743  0.33591  1.0000
  C   C323      1.0  0.60787  0.68960  0.34287  1.0000
  N   N197      1.0  0.62339  0.68038  0.34120  1.0000
  C   C324      1.0  0.62833  0.65155  0.33237  1.0000
  N   N198      1.0  0.61657  0.63060  0.32541  1.0000
  C   C325      1.0  0.06216  0.78043  0.33317  1.0000
  N   N199      1.0  0.04588  0.77963  0.33510  1.0000
  C   C326      1.0  0.03743  0.75311  0.33600  1.0000
  N   N200      1.0  0.04581  0.72641  0.33702  1.0000
  C   C327      1.0  0.06214  0.72540  0.33800  1.0000
  N   N201      1.0  0.06954  0.75291  0.33513  1.0000
  C   C328      1.0  0.94431  0.72817  0.32771  1.0000
  N   N202      1.0  0.96056  0.72903  0.32898  1.0000
  C   C329      1.0  0.96925  0.75528  0.33187  1.0000
  N   N203      1.0  0.96079  0.78191  0.33600  1.0000
  C   C330      1.0  0.94446  0.78307  0.33692  1.0000
  N   N204      1.0  0.93698  0.75568  0.33194  1.0000
  C   C331      1.0  0.56196  0.53154  0.32787  1.0000
  N   N205      1.0  0.54567  0.53083  0.32880  1.0000
  C   C332      1.0  0.53725  0.50427  0.33033  1.0000
  N   N206      1.0  0.54557  0.97759  0.33280  1.0000
  C   C333      1.0  0.56184  0.97662  0.33516  1.0000
  N   N207      1.0  0.56930  0.50403  0.33174  1.0000
  C   C334      1.0  0.44441  0.97698  0.32293  1.0000
  N   N208      1.0  0.46067  0.97782  0.32332  1.0000
  C   C335      1.0  0.46930  0.00413  0.32715  1.0000
  N   N209      1.0  0.46086  0.53068  0.33274  1.0000
  C   C336      1.0  0.44458  0.53173  0.33496  1.0000
  N   N210      1.0  0.43709  0.00442  0.32921  1.0000
  C   C337      1.0  0.26495  0.64660  0.38356  1.0000
  N   N211      1.0  0.24916  0.65308  0.38828  1.0000
  H   H175      1.0  0.27288  0.66071  0.41482  1.0000
  C   C338      1.0  0.74152  0.86166  0.38428  1.0000
  N   N212      1.0  0.75731  0.85523  0.38971  1.0000
  H   H176      1.0  0.73357  0.84777  0.41628  1.0000
  C   C339      1.0  0.74993  0.60483  0.40126  1.0000
  C   C340      1.0  0.73704  0.62169  0.36264  1.0000
  C   C341      1.0  0.76936  0.63691  0.33490  1.0000
  N   N213      1.0  0.76540  0.61270  0.38593  1.0000
  O   O43       1.0  0.74783  0.57946  0.45280  1.0000
  C   C342      1.0  0.74601  0.58603  0.54669  1.0000
  H   H177      1.0  0.75663  0.59714  0.57380  1.0000
  H   H178      1.0  0.74436  0.56464  0.58210  1.0000
  H   H179      1.0  0.73553  0.60020  0.55919  1.0000
  C   C343      1.0  0.25681  0.90342  0.40205  1.0000
  C   C344      1.0  0.26964  0.88662  0.36263  1.0000
  C   C345      1.0  0.23728  0.87135  0.33659  1.0000
  N   N214      1.0  0.24132  0.89553  0.38755  1.0000
  O   O44       1.0  0.25900  0.92870  0.45388  1.0000
  C   C346      1.0  0.26097  0.92195  0.54758  1.0000
  H   H180      1.0  0.25040  0.91079  0.57505  1.0000
  H   H181      1.0  0.26268  0.94328  0.58324  1.0000
  H   H182      1.0  0.27147  0.90777  0.55930  1.0000
  C   C347      1.0  0.28901  0.51723  0.42148  1.0000
  C   C348      1.0  0.30217  0.53441  0.39035  1.0000
  C   C349      1.0  0.30251  0.97198  0.38295  1.0000
  N   N215      1.0  0.28953  0.98676  0.41504  1.0000
  O   O45       1.0  0.27524  0.52975  0.45409  1.0000
  C   C350      1.0  0.27568  0.53429  0.54960  1.0000
  H   H183      1.0  0.27712  0.51282  0.58534  1.0000
  H   H184      1.0  0.26436  0.54431  0.57005  1.0000
  H   H185      1.0  0.28526  0.54982  0.56891  1.0000
  C   C351      1.0  0.71770  0.99093  0.42073  1.0000
  C   C352      1.0  0.70457  0.97385  0.38882  1.0000
  C   C353      1.0  0.70424  0.53628  0.38284  1.0000
  N   N216      1.0  0.71719  0.52143  0.41503  1.0000
  O   O46       1.0  0.73139  0.97827  0.45395  1.0000
  C   C354      1.0  0.73075  0.97351  0.54932  1.0000
  H   H186      1.0  0.72926  0.99489  0.58544  1.0000
  H   H187      1.0  0.74202  0.96339  0.57028  1.0000
  H   H188      1.0  0.72113  0.95795  0.56768  1.0000
  C   C355      1.0  0.81337  0.76848  0.36271  1.0000
  C   C356      1.0  0.80011  0.78577  0.33355  1.0000
  C   C357      1.0  0.80057  0.72367  0.31348  1.0000
  N   N217      1.0  0.81316  0.73809  0.35145  1.0000
  O   O47       1.0  0.82634  0.78077  0.40518  1.0000
  C   C358      1.0  0.82462  0.78155  0.50122  1.0000
  H   H189      1.0  0.81441  0.79539  0.52154  1.0000
  H   H190      1.0  0.83537  0.79169  0.52947  1.0000
  H   H191      1.0  0.82335  0.75875  0.52907  1.0000
  C   C359      1.0  0.19278  0.73950  0.35712  1.0000
  C   C360      1.0  0.20631  0.72232  0.33134  1.0000
  C   C361      1.0  0.20602  0.78456  0.31381  1.0000
  N   N218      1.0  0.19309  0.76995  0.34723  1.0000
  O   O48       1.0  0.17936  0.72706  0.39454  1.0000
  C   C362      1.0  0.17997  0.72599  0.49098  1.0000
  H   H192      1.0  0.18995  0.71215  0.51461  1.0000
  H   H193      1.0  0.16894  0.71571  0.51496  1.0000
  H   H194      1.0  0.18087  0.74872  0.51981  1.0000
  C   C363      1.0  0.35702  0.61944  0.41003  1.0000
  N   N219      1.0  0.34140  0.61221  0.41635  1.0000
  H   H195      1.0  0.36507  0.60736  0.44716  1.0000
  C   C364      1.0  0.64926  0.89028  0.40328  1.0000
  N   N220      1.0  0.66486  0.89760  0.40950  1.0000
  H   H196      1.0  0.64113  0.90324  0.43717  1.0000
  C   C365      1.0  0.65720  0.66279  0.36714  1.0000
  C   C366      1.0  0.64493  0.64443  0.32912  1.0000
  C   C367      1.0  0.67737  0.62744  0.32466  1.0000
  N   N221      1.0  0.67278  0.65365  0.36478  1.0000
  O   O49       1.0  0.65394  0.68903  0.41258  1.0000
  C   C368      1.0  0.65236  0.68455  0.50780  1.0000
  H   H197      1.0  0.64249  0.66921  0.52349  1.0000
  H   H198      1.0  0.64984  0.70637  0.53868  1.0000
  H   H199      1.0  0.66339  0.67574  0.53723  1.0000
  C   C369      1.0  0.34944  0.84551  0.36353  1.0000
  C   C370      1.0  0.36166  0.86382  0.32479  1.0000
  C   C371      1.0  0.32923  0.88084  0.32165  1.0000
  N   N222      1.0  0.33387  0.85467  0.36180  1.0000
  O   O50       1.0  0.35275  0.81931  0.40906  1.0000
  C   C372      1.0  0.35445  0.82389  0.50419  1.0000
  H   H200      1.0  0.36434  0.83923  0.51938  1.0000
  H   H201      1.0  0.35699  0.80211  0.53517  1.0000
  H   H202      1.0  0.34345  0.83276  0.53393  1.0000
  C   C373      1.0  0.84866  0.91314  0.37267  1.0000
  N   N223      1.0  0.83308  0.90418  0.36868  1.0000
  H   H203      1.0  0.85108  0.93340  0.40268  1.0000
  C   C374      1.0  0.15784  0.59524  0.37343  1.0000
  N   N224      1.0  0.17343  0.60409  0.36877  1.0000
  H   H204      1.0  0.15539  0.57528  0.40506  1.0000
  C   C375      1.0  0.15759  0.91112  0.38425  1.0000
  C   C376      1.0  0.14481  0.89267  0.35232  1.0000
  C   C377      1.0  0.17715  0.87494  0.33806  1.0000
  N   N225      1.0  0.17313  0.90187  0.37610  1.0000
  O   O51       1.0  0.15496  0.93838  0.42540  1.0000
  C   C378      1.0  0.15400  0.93592  0.52149  1.0000
  H   H205      1.0  0.14406  0.92144  0.54207  1.0000
  H   H206      1.0  0.15196  0.95850  0.54875  1.0000
  H   H207      1.0  0.16511  0.92720  0.55005  1.0000
  C   C379      1.0  0.84911  0.59719  0.38016  1.0000
  C   C380      1.0  0.86184  0.61569  0.34788  1.0000
  C   C381      1.0  0.82949  0.63333  0.33471  1.0000
  N   N226      1.0  0.83356  0.60639  0.37254  1.0000
  O   O52       1.0  0.85180  0.56992  0.42116  1.0000
  C   C382      1.0  0.85283  0.57235  0.51724  1.0000
  H   H208      1.0  0.86279  0.58683  0.53761  1.0000
  H   H209      1.0  0.85488  0.54977  0.54440  1.0000
  H   H210      1.0  0.84174  0.58108  0.54608  1.0000
  C   C383      1.0  0.08827  0.69833  0.34937  1.0000
  C   C384      1.0  0.07133  0.69810  0.34195  1.0000
  C   C385      1.0  0.09017  0.64387  0.34576  1.0000
  N   N227      1.0  0.09663  0.67208  0.34930  1.0000
  O   O53       1.0  0.09734  0.72384  0.35879  1.0000
  C   C386      1.0  0.10155  0.73022  0.45054  1.0000
  H   H211      1.0  0.09094  0.73386  0.49185  1.0000
  H   H212      1.0  0.10865  0.75093  0.45173  1.0000
  H   H213      1.0  0.10875  0.71202  0.47952  1.0000
  C   C387      1.0  0.91834  0.81006  0.34973  1.0000
  C   C388      1.0  0.93527  0.81035  0.34212  1.0000
  C   C389      1.0  0.91639  0.86450  0.34638  1.0000
  N   N228      1.0  0.90995  0.83628  0.34988  1.0000
  O   O54       1.0  0.90927  0.78452  0.35865  1.0000
  C   C390      1.0  0.90519  0.77776  0.45033  1.0000
  H   H214      1.0  0.91586  0.77394  0.49103  1.0000
  H   H215      1.0  0.89809  0.75705  0.45108  1.0000
  H   H216      1.0  0.89804  0.79585  0.48028  1.0000
  C   C391      1.0  0.94212  0.67144  0.33484  1.0000
  N   N229      1.0  0.93289  0.64581  0.33887  1.0000
  H   H217      1.0  0.95416  0.66905  0.34333  1.0000
  C   C392      1.0  0.06447  0.83713  0.34256  1.0000
  N   N230      1.0  0.07373  0.86271  0.34644  1.0000
  H   H218      1.0  0.05245  0.83955  0.35169  1.0000
  C   C393      1.0  0.58773  0.94957  0.35273  1.0000
  C   C394      1.0  0.57091  0.94931  0.34044  1.0000
  C   C395      1.0  0.58962  0.89525  0.34384  1.0000
  N   N231      1.0  0.59606  0.92335  0.35230  1.0000
  O   O55       1.0  0.59672  0.97501  0.36593  1.0000
  C   C396      1.0  0.59986  0.98124  0.45904  1.0000
  H   H219      1.0  0.58880  0.98478  0.49655  1.0000
  H   H220      1.0  0.60691  0.00199  0.46299  1.0000
  H   H221      1.0  0.60673  0.96300  0.49018  1.0000
  C   C397      1.0  0.41869  0.55866  0.35389  1.0000
  C   C398      1.0  0.43551  0.55900  0.34163  1.0000
  C   C399      1.0  0.41676  0.61298  0.34580  1.0000
  N   N232      1.0  0.41034  0.58485  0.35387  1.0000
  O   O56       1.0  0.40972  0.53314  0.36612  1.0000
  C   C400      1.0  0.40664  0.52642  0.45899  1.0000
  H   H222      1.0  0.41773  0.52268  0.49607  1.0000
  H   H223      1.0  0.39960  0.50566  0.46214  1.0000
  H   H224      1.0  0.39980  0.54450  0.49113  1.0000
  C   C401      1.0  0.44204  0.92028  0.32485  1.0000
  N   N233      1.0  0.43274  0.89473  0.32565  1.0000
  H   H225      1.0  0.45408  0.91766  0.33303  1.0000
  C   C402      1.0  0.56447  0.58821  0.33218  1.0000
  N   N234      1.0  0.57382  0.61370  0.33292  1.0000
  H   H226      1.0  0.55245  0.59090  0.34083  1.0000
  C   C403      1.0  0.12044  0.51648  0.39956  1.0000
  C   C404      1.0  0.10717  0.53502  0.37580  1.0000
  C   C405      1.0  0.10591  0.97049  0.37388  1.0000
  N   N235      1.0  0.11927  0.98617  0.39524  1.0000
  O   O57       1.0  0.13521  0.52640  0.42578  1.0000
  C   C406      1.0  0.13662  0.52960  0.52152  1.0000
  H   H227      1.0  0.12840  0.54682  0.54713  1.0000
  H   H228      1.0  0.14877  0.53685  0.53678  1.0000
  H   H229      1.0  0.13447  0.50816  0.55607  1.0000
  C   C407      1.0  0.88613  0.99205  0.39616  1.0000
  C   C408      1.0  0.89938  0.97338  0.37309  1.0000
  C   C409      1.0  0.90073  0.53792  0.36917  1.0000
  N   N236      1.0  0.88735  0.52234  0.39099  1.0000
  O   O58       1.0  0.87135  0.98230  0.42275  1.0000
  C   C410      1.0  0.86999  0.97917  0.51853  1.0000
  H   H230      1.0  0.87815  0.96183  0.54404  1.0000
  H   H231      1.0  0.85782  0.97213  0.53409  1.0000
  H   H232      1.0  0.87227  0.00058  0.55295  1.0000
  C   C411      1.0  0.62070  0.76744  0.36705  1.0000
  C   C412      1.0  0.60704  0.78600  0.35112  1.0000
  C   C413      1.0  0.60582  0.72142  0.34876  1.0000
  N   N237      1.0  0.61943  0.73720  0.36310  1.0000
  O   O59       1.0  0.63601  0.77696  0.38336  1.0000
  C   C414      1.0  0.63958  0.78011  0.47732  1.0000
  H   H233      1.0  0.63191  0.79711  0.50913  1.0000
  H   H234      1.0  0.65193  0.78763  0.48366  1.0000
  H   H235      1.0  0.63834  0.75863  0.51261  1.0000
  C   C415      1.0  0.38581  0.74094  0.36532  1.0000
  C   C416      1.0  0.39943  0.72224  0.34968  1.0000
  C   C417      1.0  0.40074  0.78683  0.34488  1.0000
  N   N238      1.0  0.38712  0.77115  0.36027  1.0000
  O   O60       1.0  0.37053  0.73153  0.38296  1.0000
  C   C418      1.0  0.36720  0.72857  0.47726  1.0000
  H   H236      1.0  0.37489  0.71150  0.50867  1.0000
  H   H237      1.0  0.35483  0.72122  0.48473  1.0000
  H   H238      1.0  0.36862  0.75006  0.51216  1.0000
  C   C419      1.0  0.99577  0.78057  0.34999  1.0000
  N   N239      1.0  0.01203  0.77946  0.35108  1.0000
  H   H239      1.0  0.99045  0.80084  0.36424  1.0000
  C   C420      1.0  0.49550  0.03036  0.34474  1.0000
  N   N240      1.0  0.51174  0.02989  0.34542  1.0000
  H   H240      1.0  0.48999  0.05044  0.35924  1.0000
