data_image0
_chemical_formula_structural       C2HNCHNCHC4H2C2NC2HC2NCOCH3C2HNCHNCHC4H2C2NC2HC2NCOCH3C2HC2HC2NCHNCHC3HC4HC5H2OH2C2NCOCH3C2NCOCH3C2HC2HC2NCHNCHC3HC4HC5H2OH2C2NCOCH3C2NCOCH3C2H2NCHCH2C3H2C2OCH3CNC2H2NCHCH2C3H2C2OCH3CNC2HCHNC4H2CNC2OCH3C2HCHNC4H2CNC2OCH3C2HC2HC2HC2HC2HC2HNCHNCHNCHNCHNCHNCHC4H2C4H2C4H2C4H2C4H2C4H2C2NCOCH3C2NCOCH3C2NCOCH3C2NCOCH3C2NCOCH3C2NCOCH3C2HC2HC2HC2HC2HC2HNCHNCHNCHNCHNCHNCHC4H2C4H2C4H2C4H2C4H2C4H2C2NCOCH3C2NCOCH3C2NCOCH3C2NCOCH3C2NCOCH3C2NCOCH3
_chemical_formula_sum              "C264 H168 N48 O24"
_cell_length_a       46.4222
_cell_length_b       46.4222
_cell_length_c       14.7571
_cell_angle_alpha    90
_cell_angle_beta     90
_cell_angle_gamma    120

_space_group_name_H-M_alt    "P 1"
_space_group_IT_number       1

loop_
  _space_group_symop_operation_xyz
  'x, y, z'

loop_
  _atom_site_type_symbol
  _atom_site_label
  _atom_site_symmetry_multiplicity
  _atom_site_fract_x
  _atom_site_fract_y
  _atom_site_fract_z
  _atom_site_occupancy
  C   C1        1.0  0.04972  0.30295  0.32257  1.0000
  C   C2        1.0  0.08390  0.32060  0.34642  1.0000
  H   H1        1.0  0.03865  0.31705  0.31830  1.0000
  N   N1        1.0  0.14464  0.24189  0.28479  1.0000
  C   C3        1.0  0.11401  0.23950  0.28138  1.0000
  H   H2        1.0  0.10211  0.23482  0.22032  1.0000
  N   N2        1.0  0.11368  0.37574  0.28454  1.0000
  C   C4        1.0  0.14192  0.40635  0.28058  1.0000
  H   H3        1.0  0.14903  0.41811  0.21931  1.0000
  C   C5        1.0  0.03049  0.26726  0.31601  1.0000
  C   C6        1.0  0.09985  0.30186  0.35893  1.0000
  C   C7        1.0  0.08410  0.26736  0.34323  1.0000
  C   C8        1.0  0.04996  0.25097  0.31888  1.0000
  H   H4        1.0  0.12496  0.31443  0.37176  1.0000
  H   H5        1.0  0.03912  0.22595  0.31048  1.0000
  C   C9        1.0  0.16492  0.25187  0.35918  1.0000
  C   C10       1.0  0.10404  0.25226  0.35453  1.0000
  N   N3        1.0  0.12443  0.26204  0.42817  1.0000
  C   C11       1.0  0.15248  0.26020  0.43673  1.0000
  C   C12       1.0  0.16897  0.24974  0.57673  1.0000
  H   H6        1.0  0.14342  0.23392  0.60020  1.0000
  C   C13       1.0  0.10350  0.35562  0.35925  1.0000
  C   C14       1.0  0.16476  0.41658  0.35350  1.0000
  N   N4        1.0  0.15428  0.39629  0.42736  1.0000
  C   C15       1.0  0.12441  0.36824  0.43649  1.0000
  O   O1        1.0  0.11972  0.34968  0.51288  1.0000
  C   C16       1.0  0.09762  0.35200  0.57676  1.0000
  H   H7        1.0  0.09548  0.33679  0.63545  1.0000
  H   H8        1.0  0.07277  0.34253  0.54814  1.0000
  H   H9        1.0  0.10731  0.37759  0.59981  1.0000
  C   C17       1.0  0.04972  0.80295  0.32257  1.0000
  C   C18       1.0  0.08390  0.82060  0.34642  1.0000
  H   H10       1.0  0.03865  0.81705  0.31830  1.0000
  N   N5        1.0  0.14464  0.74189  0.28479  1.0000
  C   C19       1.0  0.11401  0.73950  0.28138  1.0000
  H   H11       1.0  0.10211  0.73482  0.22032  1.0000
  N   N6        1.0  0.11368  0.87574  0.28454  1.0000
  C   C20       1.0  0.14192  0.90635  0.28058  1.0000
  H   H12       1.0  0.14903  0.91811  0.21931  1.0000
  C   C21       1.0  0.03049  0.76726  0.31601  1.0000
  C   C22       1.0  0.09986  0.80187  0.35893  1.0000
  C   C23       1.0  0.08410  0.76736  0.34323  1.0000
  C   C24       1.0  0.04996  0.75097  0.31888  1.0000
  H   H13       1.0  0.12497  0.81443  0.37176  1.0000
  H   H14       1.0  0.03912  0.72595  0.31048  1.0000
  C   C25       1.0  0.16492  0.75187  0.35918  1.0000
  C   C26       1.0  0.10404  0.75226  0.35453  1.0000
  N   N7        1.0  0.12443  0.76204  0.42817  1.0000
  C   C27       1.0  0.15248  0.76020  0.43673  1.0000
  C   C28       1.0  0.16897  0.74974  0.57673  1.0000
  H   H15       1.0  0.14342  0.73392  0.60020  1.0000
  C   C29       1.0  0.10350  0.85562  0.35925  1.0000
  C   C30       1.0  0.16476  0.91658  0.35350  1.0000
  N   N8        1.0  0.15428  0.89629  0.42736  1.0000
  C   C31       1.0  0.12441  0.86824  0.43649  1.0000
  O   O2        1.0  0.11972  0.84968  0.51288  1.0000
  C   C32       1.0  0.09762  0.85200  0.57676  1.0000
  H   H16       1.0  0.09549  0.83679  0.63545  1.0000
  H   H17       1.0  0.07277  0.84253  0.54814  1.0000
  H   H18       1.0  0.10731  0.87759  0.59981  1.0000
  C   C33       1.0  0.21756  0.25078  0.32240  1.0000
  C   C34       1.0  0.19991  0.26735  0.34578  1.0000
  H   H19       1.0  0.20347  0.22560  0.31855  1.0000
  C   C35       1.0  0.27140  0.07977  0.34707  1.0000
  C   C36       1.0  0.25490  0.04562  0.32297  1.0000
  H   H20       1.0  0.22974  0.03455  0.31828  1.0000
  C   C37       1.0  0.26981  0.47096  0.32237  1.0000
  C   C38       1.0  0.25324  0.43668  0.34499  1.0000
  N   N9        1.0  0.27854  0.40675  0.28414  1.0000
  C   C39       1.0  0.28110  0.37862  0.28051  1.0000
  H   H21       1.0  0.28534  0.37127  0.21910  1.0000
  N   N10       1.0  0.24598  0.10957  0.28536  1.0000
  C   C40       1.0  0.24361  0.13782  0.28151  1.0000
  H   H22       1.0  0.23897  0.14497  0.22030  1.0000
  C   C41       1.0  0.27144  0.24917  0.31581  1.0000
  C   C42       1.0  0.25514  0.21341  0.31863  1.0000
  C   C43       1.0  0.27153  0.19565  0.34279  1.0000
  H   H23       1.0  0.23010  0.19925  0.31058  1.0000
  C   C44       1.0  0.25325  0.26724  0.31577  1.0000
  C   C45       1.0  0.21863  0.30207  0.35777  1.0000
  C   C46       1.0  0.25314  0.32079  0.34215  1.0000
  C   C47       1.0  0.26954  0.30300  0.31840  1.0000
  H   H24       1.0  0.20606  0.31461  0.37058  1.0000
  C   C48       1.0  0.27138  0.02642  0.31617  1.0000
  C   C49       1.0  0.25333  0.49017  0.31584  1.0000
  C   C50       1.0  0.21852  0.42061  0.35681  1.0000
  C   C51       1.0  0.19979  0.43643  0.34187  1.0000
  C   C52       1.0  0.21756  0.47067  0.31857  1.0000
  H   H25       1.0  0.20599  0.39549  0.36950  1.0000
  H   H26       1.0  0.20340  0.48155  0.31062  1.0000
  O   O3        1.0  0.17122  0.27412  0.51281  1.0000
  H   H27       1.0  0.18433  0.26285  0.63515  1.0000
  H   H28       1.0  0.17831  0.23427  0.54794  1.0000
  C   C53       1.0  0.26877  0.41724  0.35862  1.0000
  C   C54       1.0  0.26831  0.35581  0.35353  1.0000
  N   N11       1.0  0.25858  0.36649  0.42714  1.0000
  C   C55       1.0  0.26055  0.39644  0.43604  1.0000
  O   O4        1.0  0.24648  0.40104  0.51210  1.0000
  C   C56       1.0  0.27073  0.42322  0.57619  1.0000
  H   H29       1.0  0.25751  0.42529  0.63463  1.0000
  H   H30       1.0  0.28606  0.44809  0.54758  1.0000
  H   H31       1.0  0.28670  0.41366  0.59960  1.0000
  C   C57       1.0  0.25592  0.09931  0.35989  1.0000
  C   C58       1.0  0.25636  0.16063  0.35446  1.0000
  N   N12       1.0  0.26609  0.15009  0.42833  1.0000
  C   C59       1.0  0.26420  0.12019  0.43725  1.0000
  O   O5        1.0  0.27801  0.11541  0.51364  1.0000
  C   C60       1.0  0.25354  0.09329  0.57737  1.0000
  H   H32       1.0  0.26656  0.09108  0.63608  1.0000
  H   H33       1.0  0.23815  0.06846  0.54861  1.0000
  H   H34       1.0  0.23765  0.10299  0.60043  1.0000
  C   C61       1.0  0.21756  0.75078  0.32240  1.0000
  C   C62       1.0  0.19991  0.76735  0.34578  1.0000
  H   H35       1.0  0.20346  0.72560  0.31855  1.0000
  C   C63       1.0  0.27139  0.57977  0.34707  1.0000
  C   C64       1.0  0.25490  0.54562  0.32297  1.0000
  H   H36       1.0  0.22974  0.53455  0.31828  1.0000
  C   C65       1.0  0.26981  0.97096  0.32237  1.0000
  C   C66       1.0  0.25324  0.93667  0.34499  1.0000
  N   N13       1.0  0.27854  0.90676  0.28414  1.0000
  C   C67       1.0  0.28110  0.87862  0.28051  1.0000
  H   H37       1.0  0.28534  0.87127  0.21910  1.0000
  N   N14       1.0  0.24598  0.60957  0.28536  1.0000
  C   C68       1.0  0.24361  0.63782  0.28151  1.0000
  H   H38       1.0  0.23897  0.64497  0.22030  1.0000
  C   C69       1.0  0.27144  0.74917  0.31581  1.0000
  C   C70       1.0  0.25514  0.71341  0.31863  1.0000
  C   C71       1.0  0.27153  0.69565  0.34279  1.0000
  H   H39       1.0  0.23010  0.69924  0.31058  1.0000
  C   C72       1.0  0.25325  0.76724  0.31577  1.0000
  C   C73       1.0  0.21863  0.80207  0.35777  1.0000
  C   C74       1.0  0.25314  0.82079  0.34215  1.0000
  C   C75       1.0  0.26954  0.80300  0.31840  1.0000
  H   H40       1.0  0.20606  0.81460  0.37058  1.0000
  C   C76       1.0  0.27139  0.52642  0.31617  1.0000
  C   C77       1.0  0.25333  0.99017  0.31584  1.0000
  C   C78       1.0  0.21852  0.92061  0.35681  1.0000
  C   C79       1.0  0.19979  0.93643  0.34187  1.0000
  C   C80       1.0  0.21756  0.97067  0.31857  1.0000
  H   H41       1.0  0.20599  0.89549  0.36950  1.0000
  H   H42       1.0  0.20340  0.98155  0.31062  1.0000
  O   O6        1.0  0.17122  0.77412  0.51281  1.0000
  H   H43       1.0  0.18433  0.76285  0.63515  1.0000
  H   H44       1.0  0.17831  0.73427  0.54794  1.0000
  C   C81       1.0  0.26877  0.91723  0.35862  1.0000
  C   C82       1.0  0.26831  0.85581  0.35353  1.0000
  N   N15       1.0  0.25858  0.86649  0.42714  1.0000
  C   C83       1.0  0.26055  0.89644  0.43604  1.0000
  O   O7        1.0  0.24648  0.90104  0.51210  1.0000
  C   C84       1.0  0.27073  0.92322  0.57619  1.0000
  H   H45       1.0  0.25751  0.92529  0.63463  1.0000
  H   H46       1.0  0.28606  0.94809  0.54758  1.0000
  H   H47       1.0  0.28670  0.91366  0.59960  1.0000
  C   C85       1.0  0.25592  0.59931  0.35989  1.0000
  C   C86       1.0  0.25636  0.66063  0.35446  1.0000
  N   N16       1.0  0.26610  0.65009  0.42833  1.0000
  C   C87       1.0  0.26420  0.62019  0.43725  1.0000
  O   O8        1.0  0.27801  0.61542  0.51364  1.0000
  C   C88       1.0  0.25354  0.59329  0.57737  1.0000
  H   H48       1.0  0.26656  0.59109  0.63608  1.0000
  H   H49       1.0  0.23815  0.56847  0.54861  1.0000
  H   H50       1.0  0.23765  0.60299  0.60043  1.0000
  C   C89       1.0  0.32478  0.24906  0.34573  1.0000
  C   C90       1.0  0.30714  0.26562  0.32223  1.0000
  H   H51       1.0  0.32123  0.29080  0.31815  1.0000
  H   H52       1.0  0.29500  0.48209  0.31852  1.0000
  N   N17       1.0  0.37989  0.27435  0.28427  1.0000
  C   C91       1.0  0.38266  0.10971  0.28180  1.0000
  H   H53       1.0  0.37524  0.09797  0.22061  1.0000
  C   C92       1.0  0.30605  0.21437  0.35830  1.0000
  H   H54       1.0  0.31861  0.20183  0.37119  1.0000
  H   H55       1.0  0.29457  0.31715  0.31003  1.0000
  C   C93       1.0  0.30715  0.04593  0.31891  1.0000
  C   C94       1.0  0.32487  0.08004  0.34363  1.0000
  C   C95       1.0  0.30608  0.09573  0.35967  1.0000
  H   H56       1.0  0.32134  0.03510  0.31040  1.0000
  H   H57       1.0  0.31860  0.12082  0.37281  1.0000
  C   C96       1.0  0.35979  0.26451  0.35900  1.0000
  C   C97       1.0  0.37240  0.25634  0.43640  1.0000
  O   O9        1.0  0.35383  0.24230  0.51262  1.0000
  C   C98       1.0  0.35581  0.26657  0.57650  1.0000
  H   H58       1.0  0.34061  0.25338  0.63509  1.0000
  H   H59       1.0  0.34613  0.28176  0.54779  1.0000
  H   H60       1.0  0.38134  0.28268  0.59972  1.0000
  C   C99       1.0  0.35991  0.10005  0.35490  1.0000
  N   N18       1.0  0.37062  0.12045  0.42846  1.0000
  C   C100      1.0  0.32479  0.74906  0.34573  1.0000
  C   C101      1.0  0.30714  0.76562  0.32223  1.0000
  H   H61       1.0  0.32123  0.79080  0.31815  1.0000
  H   H62       1.0  0.29500  0.98209  0.31852  1.0000
  N   N19       1.0  0.37989  0.77435  0.28427  1.0000
  C   C102      1.0  0.38266  0.60971  0.28180  1.0000
  H   H63       1.0  0.37524  0.59797  0.22061  1.0000
  C   C103      1.0  0.30605  0.71437  0.35830  1.0000
  H   H64       1.0  0.31861  0.70183  0.37119  1.0000
  H   H65       1.0  0.29457  0.81715  0.31003  1.0000
  C   C104      1.0  0.30715  0.54593  0.31891  1.0000
  C   C105      1.0  0.32487  0.58004  0.34363  1.0000
  C   C106      1.0  0.30608  0.59573  0.35967  1.0000
  H   H66       1.0  0.32134  0.53511  0.31040  1.0000
  H   H67       1.0  0.31860  0.62082  0.37281  1.0000
  C   C107      1.0  0.35979  0.76451  0.35900  1.0000
  C   C108      1.0  0.37241  0.75634  0.43640  1.0000
  O   O10       1.0  0.35383  0.74230  0.51262  1.0000
  C   C109      1.0  0.35581  0.76657  0.57650  1.0000
  H   H68       1.0  0.34061  0.75338  0.63509  1.0000
  H   H69       1.0  0.34613  0.78176  0.54779  1.0000
  H   H70       1.0  0.38134  0.78268  0.59972  1.0000
  C   C110      1.0  0.35991  0.60005  0.35490  1.0000
  N   N20       1.0  0.37062  0.62045  0.42846  1.0000
  C   C111      1.0  0.44074  0.19569  0.34527  1.0000
  C   C112      1.0  0.47500  0.21337  0.32244  1.0000
  H   H71       1.0  0.48612  0.19929  0.31904  1.0000
  C   C113      1.0  0.41057  0.27687  0.28040  1.0000
  H   H72       1.0  0.42213  0.28114  0.21893  1.0000
  N   N21       1.0  0.41084  0.14040  0.28500  1.0000
  C   C114      1.0  0.49423  0.24906  0.31578  1.0000
  C   C115      1.0  0.47475  0.26534  0.31824  1.0000
  C   C116      1.0  0.44051  0.24891  0.34164  1.0000
  C   C117      1.0  0.42470  0.21439  0.35706  1.0000
  H   H73       1.0  0.48563  0.29038  0.31012  1.0000
  H   H74       1.0  0.39958  0.20181  0.36970  1.0000
  C   C118      1.0  0.42069  0.26410  0.35328  1.0000
  N   N22       1.0  0.40038  0.25438  0.42710  1.0000
  C   C119      1.0  0.42128  0.16073  0.35930  1.0000
  C   C120      1.0  0.40063  0.14837  0.43705  1.0000
  O   O11       1.0  0.40538  0.16720  0.51287  1.0000
  C   C121      1.0  0.42766  0.16524  0.57681  1.0000
  H   H75       1.0  0.42984  0.18064  0.63507  1.0000
  H   H76       1.0  0.45247  0.17470  0.54792  1.0000
  H   H77       1.0  0.41812  0.13975  0.60058  1.0000
  C   C122      1.0  0.44074  0.69569  0.34527  1.0000
  C   C123      1.0  0.47500  0.71337  0.32244  1.0000
  H   H78       1.0  0.48612  0.69929  0.31904  1.0000
  C   C124      1.0  0.41057  0.77687  0.28040  1.0000
  H   H79       1.0  0.42213  0.78114  0.21893  1.0000
  N   N23       1.0  0.41084  0.64040  0.28500  1.0000
  C   C125      1.0  0.49423  0.74906  0.31578  1.0000
  C   C126      1.0  0.47475  0.76534  0.31824  1.0000
  C   C127      1.0  0.44052  0.74891  0.34164  1.0000
  C   C128      1.0  0.42470  0.71439  0.35706  1.0000
  H   H80       1.0  0.48563  0.79038  0.31012  1.0000
  H   H81       1.0  0.39958  0.70181  0.36970  1.0000
  C   C129      1.0  0.42069  0.76410  0.35328  1.0000
  N   N24       1.0  0.40038  0.75438  0.42710  1.0000
  C   C130      1.0  0.42128  0.66073  0.35930  1.0000
  C   C131      1.0  0.40063  0.64837  0.43705  1.0000
  O   O12       1.0  0.40538  0.66720  0.51287  1.0000
  C   C132      1.0  0.42766  0.66524  0.57681  1.0000
  H   H82       1.0  0.42984  0.68064  0.63507  1.0000
  H   H83       1.0  0.45247  0.67470  0.54792  1.0000
  H   H84       1.0  0.41812  0.63975  0.60058  1.0000
  C   C133      1.0  0.94074  0.19569  0.34527  1.0000
  C   C134      1.0  0.97500  0.21337  0.32244  1.0000
  H   H85       1.0  0.98612  0.19929  0.31904  1.0000
  C   C135      1.0  0.54972  0.30295  0.32257  1.0000
  C   C136      1.0  0.58390  0.32060  0.34642  1.0000
  H   H86       1.0  0.53865  0.31705  0.31830  1.0000
  C   C137      1.0  0.82478  0.24906  0.34573  1.0000
  C   C138      1.0  0.80714  0.26562  0.32223  1.0000
  H   H87       1.0  0.82123  0.29080  0.31815  1.0000
  C   C139      1.0  0.71756  0.25078  0.32240  1.0000
  C   C140      1.0  0.69991  0.26735  0.34578  1.0000
  H   H88       1.0  0.70346  0.22560  0.31855  1.0000
  C   C141      1.0  0.77139  0.07977  0.34707  1.0000
  C   C142      1.0  0.75490  0.04562  0.32297  1.0000
  H   H89       1.0  0.72974  0.03455  0.31828  1.0000
  C   C143      1.0  0.76981  0.47096  0.32237  1.0000
  C   C144      1.0  0.75324  0.43668  0.34499  1.0000
  H   H90       1.0  0.79500  0.48209  0.31852  1.0000
  N   N25       1.0  0.64464  0.24189  0.28479  1.0000
  C   C145      1.0  0.61401  0.23950  0.28138  1.0000
  H   H91       1.0  0.60211  0.23482  0.22032  1.0000
  N   N26       1.0  0.77854  0.40675  0.28414  1.0000
  C   C146      1.0  0.78110  0.37862  0.28051  1.0000
  H   H92       1.0  0.78534  0.37127  0.21910  1.0000
  N   N27       1.0  0.61368  0.37574  0.28454  1.0000
  C   C147      1.0  0.64192  0.40635  0.28058  1.0000
  H   H93       1.0  0.64903  0.41811  0.21931  1.0000
  N   N28       1.0  0.87989  0.27435  0.28427  1.0000
  C   C148      1.0  0.91058  0.27687  0.28040  1.0000
  H   H94       1.0  0.92213  0.28114  0.21893  1.0000
  N   N29       1.0  0.74598  0.10957  0.28536  1.0000
  C   C149      1.0  0.74361  0.13782  0.28151  1.0000
  H   H95       1.0  0.73897  0.14497  0.22030  1.0000
  N   N30       1.0  0.91084  0.14040  0.28500  1.0000
  C   C150      1.0  0.88265  0.10971  0.28180  1.0000
  H   H96       1.0  0.87524  0.09797  0.22061  1.0000
  C   C151      1.0  0.99423  0.24906  0.31578  1.0000
  C   C152      1.0  0.97475  0.26534  0.31824  1.0000
  C   C153      1.0  0.94051  0.24891  0.34164  1.0000
  C   C154      1.0  0.92470  0.21439  0.35706  1.0000
  H   H97       1.0  0.98563  0.29038  0.31012  1.0000
  H   H98       1.0  0.89958  0.20181  0.36970  1.0000
  C   C155      1.0  0.53049  0.26726  0.31601  1.0000
  C   C156      1.0  0.59985  0.30186  0.35893  1.0000
  C   C157      1.0  0.58410  0.26736  0.34323  1.0000
  C   C158      1.0  0.54996  0.25097  0.31888  1.0000
  H   H99       1.0  0.62496  0.31443  0.37176  1.0000
  H   H100      1.0  0.53912  0.22595  0.31048  1.0000
  C   C159      1.0  0.77144  0.24917  0.31581  1.0000
  C   C160      1.0  0.75514  0.21341  0.31863  1.0000
  C   C161      1.0  0.77153  0.19565  0.34279  1.0000
  C   C162      1.0  0.80605  0.21437  0.35830  1.0000
  H   H101      1.0  0.73010  0.19925  0.31058  1.0000
  H   H102      1.0  0.81861  0.20183  0.37119  1.0000
  C   C163      1.0  0.75325  0.26724  0.31577  1.0000
  C   C164      1.0  0.71863  0.30207  0.35777  1.0000
  C   C165      1.0  0.75314  0.32079  0.34215  1.0000
  C   C166      1.0  0.76954  0.30300  0.31840  1.0000
  H   H103      1.0  0.70606  0.31461  0.37058  1.0000
  H   H104      1.0  0.79457  0.31715  0.31003  1.0000
  C   C167      1.0  0.77138  0.02642  0.31617  1.0000
  C   C168      1.0  0.80715  0.04593  0.31891  1.0000
  C   C169      1.0  0.82487  0.08004  0.34363  1.0000
  C   C170      1.0  0.80608  0.09573  0.35967  1.0000
  H   H105      1.0  0.82134  0.03510  0.31040  1.0000
  H   H106      1.0  0.81860  0.12082  0.37281  1.0000
  C   C171      1.0  0.75333  0.49017  0.31584  1.0000
  C   C172      1.0  0.71852  0.42061  0.35681  1.0000
  C   C173      1.0  0.69979  0.43643  0.34187  1.0000
  C   C174      1.0  0.71757  0.47067  0.31857  1.0000
  H   H107      1.0  0.70599  0.39549  0.36950  1.0000
  H   H108      1.0  0.70340  0.48155  0.31062  1.0000
  C   C175      1.0  0.66492  0.25187  0.35918  1.0000
  C   C176      1.0  0.60404  0.25226  0.35453  1.0000
  N   N31       1.0  0.62443  0.26204  0.42817  1.0000
  C   C177      1.0  0.65248  0.26020  0.43673  1.0000
  O   O13       1.0  0.67122  0.27412  0.51281  1.0000
  C   C178      1.0  0.66897  0.24974  0.57673  1.0000
  H   H109      1.0  0.68433  0.26285  0.63515  1.0000
  H   H110      1.0  0.67831  0.23427  0.54794  1.0000
  H   H111      1.0  0.64342  0.23392  0.60020  1.0000
  C   C179      1.0  0.76877  0.41724  0.35862  1.0000
  C   C180      1.0  0.76831  0.35581  0.35353  1.0000
  N   N32       1.0  0.75858  0.36649  0.42714  1.0000
  C   C181      1.0  0.76055  0.39644  0.43604  1.0000
  O   O14       1.0  0.74648  0.40104  0.51210  1.0000
  C   C182      1.0  0.77073  0.42322  0.57619  1.0000
  H   H112      1.0  0.75752  0.42529  0.63463  1.0000
  H   H113      1.0  0.78606  0.44809  0.54758  1.0000
  H   H114      1.0  0.78670  0.41366  0.59960  1.0000
  C   C183      1.0  0.60350  0.35562  0.35925  1.0000
  C   C184      1.0  0.66476  0.41658  0.35350  1.0000
  N   N33       1.0  0.65428  0.39629  0.42736  1.0000
  C   C185      1.0  0.62441  0.36824  0.43649  1.0000
  O   O15       1.0  0.61972  0.34968  0.51288  1.0000
  C   C186      1.0  0.59762  0.35200  0.57676  1.0000
  H   H115      1.0  0.59548  0.33679  0.63545  1.0000
  H   H116      1.0  0.57277  0.34253  0.54814  1.0000
  H   H117      1.0  0.60731  0.37759  0.59981  1.0000
  C   C187      1.0  0.85979  0.26451  0.35900  1.0000
  C   C188      1.0  0.92069  0.26410  0.35328  1.0000
  N   N34       1.0  0.90038  0.25438  0.42710  1.0000
  C   C189      1.0  0.87240  0.25634  0.43640  1.0000
  O   O16       1.0  0.85383  0.24230  0.51262  1.0000
  C   C190      1.0  0.85581  0.26657  0.57650  1.0000
  H   H118      1.0  0.84061  0.25338  0.63509  1.0000
  H   H119      1.0  0.84612  0.28176  0.54779  1.0000
  H   H120      1.0  0.88134  0.28268  0.59972  1.0000
  C   C191      1.0  0.75592  0.09931  0.35989  1.0000
  C   C192      1.0  0.75636  0.16063  0.35446  1.0000
  N   N35       1.0  0.76609  0.15009  0.42833  1.0000
  C   C193      1.0  0.76420  0.12019  0.43725  1.0000
  O   O17       1.0  0.77801  0.11541  0.51364  1.0000
  C   C194      1.0  0.75354  0.09329  0.57737  1.0000
  H   H121      1.0  0.76656  0.09108  0.63608  1.0000
  H   H122      1.0  0.73816  0.06846  0.54861  1.0000
  H   H123      1.0  0.73765  0.10299  0.60043  1.0000
  C   C195      1.0  0.92128  0.16073  0.35930  1.0000
  C   C196      1.0  0.85991  0.10005  0.35490  1.0000
  N   N36       1.0  0.87062  0.12045  0.42846  1.0000
  C   C197      1.0  0.90063  0.14837  0.43705  1.0000
  O   O18       1.0  0.90538  0.16720  0.51287  1.0000
  C   C198      1.0  0.92766  0.16524  0.57681  1.0000
  H   H124      1.0  0.92984  0.18064  0.63507  1.0000
  H   H125      1.0  0.95247  0.17470  0.54792  1.0000
  H   H126      1.0  0.91812  0.13975  0.60058  1.0000
  C   C199      1.0  0.94073  0.69569  0.34527  1.0000
  C   C200      1.0  0.97500  0.71337  0.32244  1.0000
  H   H127      1.0  0.98612  0.69929  0.31904  1.0000
  C   C201      1.0  0.54972  0.80295  0.32257  1.0000
  C   C202      1.0  0.58390  0.82060  0.34642  1.0000
  H   H128      1.0  0.53865  0.81705  0.31830  1.0000
  C   C203      1.0  0.82478  0.74906  0.34573  1.0000
  C   C204      1.0  0.80714  0.76562  0.32223  1.0000
  H   H129      1.0  0.82124  0.79080  0.31815  1.0000
  C   C205      1.0  0.71756  0.75078  0.32240  1.0000
  C   C206      1.0  0.69991  0.76735  0.34578  1.0000
  H   H130      1.0  0.70346  0.72560  0.31855  1.0000
  C   C207      1.0  0.77139  0.57977  0.34707  1.0000
  C   C208      1.0  0.75490  0.54562  0.32297  1.0000
  H   H131      1.0  0.72974  0.53455  0.31828  1.0000
  C   C209      1.0  0.76982  0.97096  0.32237  1.0000
  C   C210      1.0  0.75324  0.93667  0.34499  1.0000
  H   H132      1.0  0.79500  0.98209  0.31852  1.0000
  N   N37       1.0  0.64464  0.74189  0.28479  1.0000
  C   C211      1.0  0.61401  0.73950  0.28138  1.0000
  H   H133      1.0  0.60211  0.73482  0.22032  1.0000
  N   N38       1.0  0.77854  0.90676  0.28414  1.0000
  C   C212      1.0  0.78110  0.87862  0.28051  1.0000
  H   H134      1.0  0.78534  0.87127  0.21910  1.0000
  N   N39       1.0  0.61368  0.87574  0.28454  1.0000
  C   C213      1.0  0.64192  0.90635  0.28058  1.0000
  H   H135      1.0  0.64903  0.91811  0.21931  1.0000
  N   N40       1.0  0.87989  0.77435  0.28427  1.0000
  C   C214      1.0  0.91057  0.77687  0.28040  1.0000
  H   H136      1.0  0.92213  0.78114  0.21893  1.0000
  N   N41       1.0  0.74597  0.60957  0.28536  1.0000
  C   C215      1.0  0.74362  0.63782  0.28151  1.0000
  H   H137      1.0  0.73897  0.64497  0.22030  1.0000
  N   N42       1.0  0.91084  0.64040  0.28500  1.0000
  C   C216      1.0  0.88266  0.60971  0.28180  1.0000
  H   H138      1.0  0.87524  0.59797  0.22061  1.0000
  C   C217      1.0  0.99423  0.74906  0.31578  1.0000
  C   C218      1.0  0.97475  0.76534  0.31824  1.0000
  C   C219      1.0  0.94052  0.74891  0.34164  1.0000
  C   C220      1.0  0.92470  0.71439  0.35706  1.0000
  H   H139      1.0  0.98563  0.79038  0.31012  1.0000
  H   H140      1.0  0.89958  0.70181  0.36970  1.0000
  C   C221      1.0  0.53049  0.76726  0.31601  1.0000
  C   C222      1.0  0.59985  0.80187  0.35893  1.0000
  C   C223      1.0  0.58410  0.76736  0.34323  1.0000
  C   C224      1.0  0.54996  0.75097  0.31888  1.0000
  H   H141      1.0  0.62496  0.81443  0.37176  1.0000
  H   H142      1.0  0.53912  0.72595  0.31048  1.0000
  C   C225      1.0  0.77144  0.74917  0.31581  1.0000
  C   C226      1.0  0.75513  0.71341  0.31863  1.0000
  C   C227      1.0  0.77153  0.69565  0.34279  1.0000
  C   C228      1.0  0.80605  0.71437  0.35830  1.0000
  H   H143      1.0  0.73010  0.69924  0.31058  1.0000
  H   H144      1.0  0.81861  0.70183  0.37119  1.0000
  C   C229      1.0  0.75325  0.76724  0.31577  1.0000
  C   C230      1.0  0.71863  0.80207  0.35777  1.0000
  C   C231      1.0  0.75314  0.82079  0.34215  1.0000
  C   C232      1.0  0.76955  0.80300  0.31840  1.0000
  H   H145      1.0  0.70606  0.81460  0.37058  1.0000
  H   H146      1.0  0.79457  0.81715  0.31003  1.0000
  C   C233      1.0  0.77138  0.52642  0.31617  1.0000
  C   C234      1.0  0.80715  0.54593  0.31891  1.0000
  C   C235      1.0  0.82487  0.58004  0.34363  1.0000
  C   C236      1.0  0.80608  0.59573  0.35967  1.0000
  H   H147      1.0  0.82134  0.53511  0.31040  1.0000
  H   H148      1.0  0.81860  0.62082  0.37281  1.0000
  C   C237      1.0  0.75333  0.99017  0.31584  1.0000
  C   C238      1.0  0.71852  0.92061  0.35681  1.0000
  C   C239      1.0  0.69979  0.93643  0.34187  1.0000
  C   C240      1.0  0.71756  0.97067  0.31857  1.0000
  H   H149      1.0  0.70599  0.89549  0.36950  1.0000
  H   H150      1.0  0.70340  0.98155  0.31062  1.0000
  C   C241      1.0  0.66492  0.75187  0.35918  1.0000
  C   C242      1.0  0.60404  0.75226  0.35453  1.0000
  N   N43       1.0  0.62443  0.76204  0.42817  1.0000
  C   C243      1.0  0.65248  0.76020  0.43673  1.0000
  O   O19       1.0  0.67122  0.77412  0.51281  1.0000
  C   C244      1.0  0.66897  0.74974  0.57673  1.0000
  H   H151      1.0  0.68433  0.76285  0.63515  1.0000
  H   H152      1.0  0.67831  0.73427  0.54794  1.0000
  H   H153      1.0  0.64342  0.73392  0.60020  1.0000
  C   C245      1.0  0.76877  0.91723  0.35862  1.0000
  C   C246      1.0  0.76831  0.85581  0.35353  1.0000
  N   N44       1.0  0.75858  0.86649  0.42714  1.0000
  C   C247      1.0  0.76055  0.89644  0.43604  1.0000
  O   O20       1.0  0.74648  0.90104  0.51210  1.0000
  C   C248      1.0  0.77073  0.92322  0.57619  1.0000
  H   H154      1.0  0.75751  0.92529  0.63463  1.0000
  H   H155      1.0  0.78606  0.94809  0.54758  1.0000
  H   H156      1.0  0.78670  0.91366  0.59960  1.0000
  C   C249      1.0  0.60350  0.85562  0.35925  1.0000
  C   C250      1.0  0.66476  0.91658  0.35350  1.0000
  N   N45       1.0  0.65428  0.89629  0.42736  1.0000
  C   C251      1.0  0.62441  0.86824  0.43649  1.0000
  O   O21       1.0  0.61972  0.84968  0.51288  1.0000
  C   C252      1.0  0.59762  0.85200  0.57676  1.0000
  H   H157      1.0  0.59548  0.83679  0.63545  1.0000
  H   H158      1.0  0.57277  0.84253  0.54814  1.0000
  H   H159      1.0  0.60731  0.87759  0.59981  1.0000
  C   C253      1.0  0.85978  0.76451  0.35900  1.0000
  C   C254      1.0  0.92068  0.76410  0.35328  1.0000
  N   N46       1.0  0.90038  0.75438  0.42710  1.0000
  C   C255      1.0  0.87241  0.75634  0.43640  1.0000
  O   O22       1.0  0.85383  0.74230  0.51262  1.0000
  C   C256      1.0  0.85581  0.76657  0.57650  1.0000
  H   H160      1.0  0.84061  0.75338  0.63509  1.0000
  H   H161      1.0  0.84613  0.78176  0.54779  1.0000
  H   H162      1.0  0.88134  0.78268  0.59972  1.0000
  C   C257      1.0  0.75592  0.59931  0.35989  1.0000
  C   C258      1.0  0.75636  0.66063  0.35446  1.0000
  N   N47       1.0  0.76609  0.65009  0.42833  1.0000
  C   C259      1.0  0.76420  0.62019  0.43725  1.0000
  O   O23       1.0  0.77801  0.61542  0.51364  1.0000
  C   C260      1.0  0.75354  0.59329  0.57737  1.0000
  H   H163      1.0  0.76656  0.59109  0.63608  1.0000
  H   H164      1.0  0.73815  0.56847  0.54861  1.0000
  H   H165      1.0  0.73765  0.60299  0.60043  1.0000
  C   C261      1.0  0.92128  0.66073  0.35930  1.0000
  C   C262      1.0  0.85991  0.60005  0.35490  1.0000
  N   N48       1.0  0.87062  0.62045  0.42846  1.0000
  C   C263      1.0  0.90063  0.64837  0.43705  1.0000
  O   O24       1.0  0.90537  0.66720  0.51287  1.0000
  C   C264      1.0  0.92766  0.66524  0.57681  1.0000
  H   H166      1.0  0.92984  0.68064  0.63507  1.0000
  H   H167      1.0  0.95247  0.67470  0.54792  1.0000
  H   H168      1.0  0.91812  0.63975  0.60058  1.0000
