data_image0
_chemical_formula_structural       C3H2C2H2NC2H3NC4NH2C3H3NC2H2NC3H2C2H2NC2H3NC4NH2C3H3NC2H2NC4H2C3HC3H2C3H2NC3H2NC6NH2C3NH2C3H2NCHC3H3NC4H2C3HC3H2C3H2NC3H2NC6NH2C3NH2C3H2NCHC3H3NC2H5C2H3CHNHCNH2C3NH3C2H2C2H5C2H3CHNHCNH2C3NH3C2H2C3H2NC2H3C4NHC3H3NCHNC3H2NC2H3C4NHC3H3NCHNC3HC3H3C3HC3H3C3HC3H3C2H3NC3H3NC3H3NC3H3NC3H3NC3H3NC4NC3NH4C3NC3NH4C3NC3NH4C3H3NC3H3NC3H3NC3H3NC3H3NC3H3NC3HC3H3C3HC3H3C3HC3H3C2H3NC3H3NC3H3NC3H3NC3H3NC3H3NC4NC3NH4C3NC3NH4C3NC3NH4C3H3NC3H3NC3H3NC3H3NC3H3NC3H3N
_chemical_formula_sum              "C288 H240 N72"
_cell_length_a       46.2675
_cell_length_b       46.2675
_cell_length_c       14.7675
_cell_angle_alpha    90
_cell_angle_beta     90
_cell_angle_gamma    120

_space_group_name_H-M_alt    "P 1"
_space_group_IT_number       1

loop_
  _space_group_symop_operation_xyz
  'x, y, z'

loop_
  _atom_site_type_symbol
  _atom_site_label
  _atom_site_symmetry_multiplicity
  _atom_site_fract_x
  _atom_site_fract_y
  _atom_site_fract_z
  _atom_site_occupancy
  C   C1        1.0  0.02965  0.26659  0.34763  1.0000
  C   C2        1.0  0.08459  0.32076  0.34391  1.0000
  C   C3        1.0  0.04916  0.30232  0.34553  1.0000
  H   H1        1.0  0.03766  0.31613  0.34021  1.0000
  H   H2        1.0  0.14933  0.34269  0.33169  1.0000
  C   C4        1.0  0.14838  0.24239  0.15454  1.0000
  C   C5        1.0  0.14076  0.24437  0.25083  1.0000
  H   H3        1.0  0.12803  0.21977  0.12472  1.0000
  H   H4        1.0  0.15085  0.26395  0.11767  1.0000
  N   N1        1.0  0.11292  0.24649  0.26894  1.0000
  C   C6        1.0  0.11677  0.36311  0.17537  1.0000
  C   C7        1.0  0.12266  0.37513  0.27007  1.0000
  H   H5        1.0  0.11837  0.38272  0.13101  1.0000
  H   H6        1.0  0.09218  0.34110  0.16638  1.0000
  H   H7        1.0  0.13569  0.35690  0.15495  1.0000
  N   N2        1.0  0.15282  0.40271  0.28835  1.0000
  C   C8        1.0  0.10213  0.35643  0.34425  1.0000
  C   C9        1.0  0.04915  0.25037  0.35103  1.0000
  C   C10       1.0  0.08451  0.26729  0.35557  1.0000
  C   C11       1.0  0.10230  0.30288  0.34994  1.0000
  N   N3        1.0  0.13635  0.31984  0.35006  1.0000
  H   H8        1.0  0.14930  0.30980  0.36758  1.0000
  H   H9        1.0  0.03770  0.22502  0.35235  1.0000
  C   C12       1.0  0.10198  0.24912  0.35259  1.0000
  C   C13       1.0  0.12234  0.25011  0.42614  1.0000
  C   C14       1.0  0.11579  0.25536  0.52107  1.0000
  H   H10       1.0  0.11656  0.27920  0.52822  1.0000
  H   H11       1.0  0.13428  0.25531  0.56693  1.0000
  H   H12       1.0  0.09118  0.23531  0.54141  1.0000
  N   N4        1.0  0.15218  0.25214  0.40671  1.0000
  C   C15       1.0  0.14168  0.40027  0.44441  1.0000
  C   C16       1.0  0.15002  0.41152  0.53945  1.0000
  H   H13       1.0  0.12992  0.39511  0.58522  1.0000
  H   H14       1.0  0.15377  0.43666  0.54584  1.0000
  N   N5        1.0  0.11344  0.37048  0.42736  1.0000
  C   C17       1.0  0.02966  0.76659  0.34763  1.0000
  C   C18       1.0  0.08459  0.82076  0.34391  1.0000
  C   C19       1.0  0.04916  0.80232  0.34553  1.0000
  H   H15       1.0  0.03766  0.81613  0.34021  1.0000
  H   H16       1.0  0.14933  0.84269  0.33169  1.0000
  C   C20       1.0  0.14838  0.74239  0.15454  1.0000
  C   C21       1.0  0.14077  0.74437  0.25083  1.0000
  H   H17       1.0  0.12803  0.71977  0.12472  1.0000
  H   H18       1.0  0.15085  0.76395  0.11767  1.0000
  N   N6        1.0  0.11292  0.74649  0.26894  1.0000
  C   C22       1.0  0.11677  0.86311  0.17537  1.0000
  C   C23       1.0  0.12266  0.87513  0.27007  1.0000
  H   H19       1.0  0.11837  0.88272  0.13100  1.0000
  H   H20       1.0  0.09218  0.84110  0.16638  1.0000
  H   H21       1.0  0.13569  0.85690  0.15495  1.0000
  N   N7        1.0  0.15282  0.90271  0.28835  1.0000
  C   C24       1.0  0.10213  0.85643  0.34425  1.0000
  C   C25       1.0  0.04915  0.75037  0.35103  1.0000
  C   C26       1.0  0.08451  0.76729  0.35557  1.0000
  C   C27       1.0  0.10230  0.80288  0.34994  1.0000
  N   N8        1.0  0.13635  0.81984  0.35006  1.0000
  H   H22       1.0  0.14931  0.80980  0.36758  1.0000
  H   H23       1.0  0.03770  0.72503  0.35235  1.0000
  C   C28       1.0  0.10198  0.74912  0.35259  1.0000
  C   C29       1.0  0.12234  0.75011  0.42614  1.0000
  C   C30       1.0  0.11579  0.75536  0.52107  1.0000
  H   H24       1.0  0.11656  0.77920  0.52822  1.0000
  H   H25       1.0  0.13428  0.75531  0.56693  1.0000
  H   H26       1.0  0.09118  0.73532  0.54141  1.0000
  N   N9        1.0  0.15218  0.75214  0.40671  1.0000
  C   C31       1.0  0.14168  0.90027  0.44441  1.0000
  C   C32       1.0  0.15002  0.91152  0.53945  1.0000
  H   H27       1.0  0.12992  0.89511  0.58522  1.0000
  H   H28       1.0  0.15377  0.93666  0.54584  1.0000
  N   N10       1.0  0.11344  0.87048  0.42736  1.0000
  C   C33       1.0  0.27022  0.24855  0.35701  1.0000
  C   C34       1.0  0.25200  0.26637  0.34489  1.0000
  C   C35       1.0  0.19867  0.26675  0.31315  1.0000
  C   C36       1.0  0.21648  0.25017  0.33627  1.0000
  H   H29       1.0  0.20239  0.22501  0.34482  1.0000
  H   H30       1.0  0.17916  0.30692  0.24509  1.0000
  C   C37       1.0  0.27072  0.02604  0.34913  1.0000
  C   C38       1.0  0.25457  0.04560  0.34603  1.0000
  C   C39       1.0  0.27162  0.08100  0.34116  1.0000
  H   H31       1.0  0.22921  0.03416  0.34516  1.0000
  C   C40       1.0  0.25261  0.48975  0.35485  1.0000
  C   C41       1.0  0.25266  0.43540  0.36850  1.0000
  C   C42       1.0  0.26876  0.47025  0.35149  1.0000
  H   H32       1.0  0.21235  0.37223  0.42093  1.0000
  H   H33       1.0  0.17138  0.24153  0.14626  1.0000
  C   C43       1.0  0.16320  0.24951  0.32308  1.0000
  C   C44       1.0  0.26620  0.41754  0.18033  1.0000
  C   C45       1.0  0.27089  0.40474  0.26767  1.0000
  H   H34       1.0  0.26864  0.44211  0.18648  1.0000
  H   H35       1.0  0.24149  0.40030  0.15323  1.0000
  N   N11       1.0  0.26888  0.37434  0.26374  1.0000
  C   C46       1.0  0.27020  0.41768  0.35457  1.0000
  C   C47       1.0  0.26254  0.11451  0.17444  1.0000
  C   C48       1.0  0.25590  0.11972  0.26929  1.0000
  H   H36       1.0  0.24478  0.11645  0.12985  1.0000
  H   H37       1.0  0.26000  0.08999  0.16427  1.0000
  N   N12       1.0  0.25830  0.14968  0.28904  1.0000
  C   C49       1.0  0.25357  0.09860  0.34253  1.0000
  C   C50       1.0  0.27145  0.19545  0.38495  1.0000
  C   C51       1.0  0.25443  0.21301  0.36390  1.0000
  C   C52       1.0  0.26789  0.30201  0.34624  1.0000
  C   C53       1.0  0.25168  0.32038  0.32523  1.0000
  C   C54       1.0  0.21698  0.30226  0.30197  1.0000
  N   N13       1.0  0.20053  0.31845  0.27472  1.0000
  H   H38       1.0  0.20996  0.34224  0.27651  1.0000
  H   H39       1.0  0.22931  0.19867  0.35516  1.0000
  C   C55       1.0  0.21705  0.47007  0.36233  1.0000
  C   C56       1.0  0.19941  0.43535  0.38182  1.0000
  C   C57       1.0  0.21794  0.41834  0.39113  1.0000
  N   N14       1.0  0.20197  0.38575  0.41866  1.0000
  H   H40       1.0  0.18068  0.37588  0.44889  1.0000
  H   H41       1.0  0.20278  0.48104  0.35644  1.0000
  C   C58       1.0  0.26914  0.35585  0.33526  1.0000
  C   C59       1.0  0.27335  0.37111  0.42155  1.0000
  C   C60       1.0  0.27185  0.35430  0.50809  1.0000
  H   H42       1.0  0.24802  0.33113  0.51426  1.0000
  H   H43       1.0  0.27447  0.37011  0.56602  1.0000
  N   N15       1.0  0.27206  0.39993  0.42594  1.0000
  C   C61       1.0  0.16396  0.41680  0.37139  1.0000
  H   H44       1.0  0.17276  0.41183  0.56057  1.0000
  C   C62       1.0  0.25480  0.16011  0.37255  1.0000
  C   C63       1.0  0.24847  0.13722  0.44436  1.0000
  C   C64       1.0  0.24485  0.14476  0.53964  1.0000
  H   H45       1.0  0.26712  0.16731  0.56251  1.0000
  H   H46       1.0  0.24080  0.12428  0.58437  1.0000
  H   H47       1.0  0.22341  0.14847  0.54548  1.0000
  N   N16       1.0  0.25011  0.10910  0.42606  1.0000
  C   C65       1.0  0.27022  0.74855  0.35701  1.0000
  C   C66       1.0  0.25200  0.76637  0.34489  1.0000
  C   C67       1.0  0.19867  0.76675  0.31315  1.0000
  C   C68       1.0  0.21648  0.75017  0.33627  1.0000
  H   H48       1.0  0.20238  0.72501  0.34482  1.0000
  H   H49       1.0  0.17916  0.80692  0.24509  1.0000
  C   C69       1.0  0.27072  0.52604  0.34913  1.0000
  C   C70       1.0  0.25457  0.54560  0.34603  1.0000
  C   C71       1.0  0.27162  0.58100  0.34116  1.0000
  H   H50       1.0  0.22921  0.53416  0.34516  1.0000
  C   C72       1.0  0.25261  0.98975  0.35485  1.0000
  C   C73       1.0  0.25266  0.93540  0.36850  1.0000
  C   C74       1.0  0.26876  0.97025  0.35149  1.0000
  H   H51       1.0  0.21236  0.87223  0.42093  1.0000
  H   H52       1.0  0.17138  0.74153  0.14626  1.0000
  C   C75       1.0  0.16320  0.74951  0.32308  1.0000
  C   C76       1.0  0.26620  0.91754  0.18033  1.0000
  C   C77       1.0  0.27089  0.90474  0.26767  1.0000
  H   H53       1.0  0.26864  0.94211  0.18648  1.0000
  H   H54       1.0  0.24149  0.90030  0.15323  1.0000
  N   N17       1.0  0.26888  0.87434  0.26374  1.0000
  C   C78       1.0  0.27020  0.91768  0.35457  1.0000
  C   C79       1.0  0.26254  0.61451  0.17444  1.0000
  C   C80       1.0  0.25590  0.61972  0.26929  1.0000
  H   H55       1.0  0.24478  0.61645  0.12985  1.0000
  H   H56       1.0  0.26000  0.58998  0.16427  1.0000
  N   N18       1.0  0.25830  0.64968  0.28904  1.0000
  C   C81       1.0  0.25357  0.59860  0.34253  1.0000
  C   C82       1.0  0.27145  0.69545  0.38495  1.0000
  C   C83       1.0  0.25443  0.71301  0.36390  1.0000
  C   C84       1.0  0.26789  0.80200  0.34624  1.0000
  C   C85       1.0  0.25168  0.82038  0.32523  1.0000
  C   C86       1.0  0.21698  0.80226  0.30197  1.0000
  N   N19       1.0  0.20053  0.81845  0.27472  1.0000
  H   H57       1.0  0.20996  0.84225  0.27651  1.0000
  H   H58       1.0  0.22931  0.69867  0.35516  1.0000
  C   C87       1.0  0.21705  0.97007  0.36233  1.0000
  C   C88       1.0  0.19941  0.93535  0.38182  1.0000
  C   C89       1.0  0.21794  0.91834  0.39113  1.0000
  N   N20       1.0  0.20197  0.88576  0.41866  1.0000
  H   H59       1.0  0.18068  0.87588  0.44889  1.0000
  H   H60       1.0  0.20278  0.98104  0.35644  1.0000
  C   C90       1.0  0.26914  0.85585  0.33526  1.0000
  C   C91       1.0  0.27334  0.87111  0.42155  1.0000
  C   C92       1.0  0.27185  0.85430  0.50809  1.0000
  H   H61       1.0  0.24802  0.83113  0.51426  1.0000
  H   H62       1.0  0.27447  0.87011  0.56602  1.0000
  N   N21       1.0  0.27206  0.89993  0.42594  1.0000
  C   C93       1.0  0.16396  0.91680  0.37139  1.0000
  H   H63       1.0  0.17276  0.91183  0.56057  1.0000
  C   C94       1.0  0.25480  0.66011  0.37255  1.0000
  C   C95       1.0  0.24847  0.63722  0.44436  1.0000
  C   C96       1.0  0.24485  0.64476  0.53964  1.0000
  H   H64       1.0  0.26712  0.66731  0.56251  1.0000
  H   H65       1.0  0.24080  0.62428  0.58437  1.0000
  H   H66       1.0  0.22341  0.64847  0.54548  1.0000
  N   N22       1.0  0.25011  0.60910  0.42606  1.0000
  C   C97       1.0  0.30589  0.26490  0.35587  1.0000
  C   C98       1.0  0.32467  0.24887  0.37370  1.0000
  H   H67       1.0  0.31941  0.28957  0.33938  1.0000
  H   H68       1.0  0.34733  0.20849  0.42750  1.0000
  H   H69       1.0  0.29344  0.48132  0.33549  1.0000
  H   H70       1.0  0.31446  0.14598  0.33368  1.0000
  H   H71       1.0  0.28500  0.41951  0.13217  1.0000
  C   C99       1.0  0.35580  0.26283  0.18473  1.0000
  C   C100      1.0  0.37342  0.26727  0.27174  1.0000
  H   H72       1.0  0.37244  0.28198  0.13706  1.0000
  H   H73       1.0  0.33347  0.26490  0.19162  1.0000
  H   H74       1.0  0.34860  0.23834  0.15652  1.0000
  C   C101      1.0  0.35991  0.26628  0.35909  1.0000
  H   H75       1.0  0.28778  0.13357  0.15532  1.0000
  N   N23       1.0  0.37385  0.10983  0.26510  1.0000
  H   H76       1.0  0.37486  0.20658  0.28161  1.0000
  C   C102      1.0  0.30695  0.21407  0.39574  1.0000
  N   N24       1.0  0.32344  0.19801  0.42369  1.0000
  H   H77       1.0  0.31186  0.17645  0.45248  1.0000
  H   H78       1.0  0.29251  0.31579  0.36296  1.0000
  C   C103      1.0  0.30723  0.09868  0.34630  1.0000
  C   C104      1.0  0.32498  0.08083  0.35152  1.0000
  C   C105      1.0  0.30645  0.04545  0.35060  1.0000
  N   N25       1.0  0.32443  0.13273  0.34803  1.0000
  H   H79       1.0  0.34714  0.14534  0.36822  1.0000
  H   H80       1.0  0.32028  0.03398  0.35514  1.0000
  H   H81       1.0  0.29209  0.34868  0.51077  1.0000
  C   C106      1.0  0.36059  0.09815  0.34872  1.0000
  C   C107      1.0  0.36869  0.11095  0.51748  1.0000
  H   H82       1.0  0.34554  0.11150  0.52590  1.0000
  H   H83       1.0  0.36434  0.08628  0.53628  1.0000
  C   C108      1.0  0.30589  0.76490  0.35587  1.0000
  C   C109      1.0  0.32467  0.74887  0.37370  1.0000
  H   H84       1.0  0.31941  0.78957  0.33938  1.0000
  H   H85       1.0  0.34733  0.70849  0.42750  1.0000
  H   H86       1.0  0.29344  0.98132  0.33549  1.0000
  H   H87       1.0  0.31446  0.64598  0.33368  1.0000
  H   H88       1.0  0.28500  0.91951  0.13217  1.0000
  C   C110      1.0  0.35580  0.76284  0.18473  1.0000
  C   C111      1.0  0.37342  0.76727  0.27174  1.0000
  H   H89       1.0  0.37244  0.78198  0.13706  1.0000
  H   H90       1.0  0.33347  0.76490  0.19162  1.0000
  H   H91       1.0  0.34860  0.73833  0.15652  1.0000
  C   C112      1.0  0.35992  0.76628  0.35909  1.0000
  H   H92       1.0  0.28778  0.63357  0.15532  1.0000
  N   N26       1.0  0.37385  0.60983  0.26510  1.0000
  H   H93       1.0  0.37486  0.70658  0.28161  1.0000
  C   C113      1.0  0.30695  0.71407  0.39574  1.0000
  N   N27       1.0  0.32344  0.69801  0.42369  1.0000
  H   H94       1.0  0.31186  0.67645  0.45248  1.0000
  H   H95       1.0  0.29251  0.81579  0.36296  1.0000
  C   C114      1.0  0.30723  0.59868  0.34630  1.0000
  C   C115      1.0  0.32498  0.58083  0.35152  1.0000
  C   C116      1.0  0.30645  0.54545  0.35060  1.0000
  N   N28       1.0  0.32443  0.63273  0.34803  1.0000
  H   H96       1.0  0.34714  0.64534  0.36822  1.0000
  H   H97       1.0  0.32028  0.53398  0.35514  1.0000
  H   H98       1.0  0.29209  0.84867  0.51077  1.0000
  C   C117      1.0  0.36060  0.59815  0.34872  1.0000
  C   C118      1.0  0.36869  0.61095  0.51748  1.0000
  H   H99       1.0  0.34554  0.61150  0.52590  1.0000
  H   H100      1.0  0.36434  0.58628  0.53628  1.0000
  C   C119      1.0  0.49336  0.24847  0.34162  1.0000
  C   C120      1.0  0.47390  0.21296  0.33244  1.0000
  C   C121      1.0  0.43932  0.19524  0.31174  1.0000
  H   H101      1.0  0.48498  0.19878  0.33741  1.0000
  H   H102      1.0  0.37938  0.17612  0.24645  1.0000
  N   N29       1.0  0.40197  0.26557  0.26660  1.0000
  C   C122      1.0  0.41282  0.14604  0.15067  1.0000
  C   C123      1.0  0.40371  0.13778  0.24700  1.0000
  H   H103      1.0  0.41500  0.12592  0.11891  1.0000
  H   H104      1.0  0.43660  0.16912  0.14253  1.0000
  H   H105      1.0  0.39351  0.14868  0.11556  1.0000
  C   C124      1.0  0.42120  0.15970  0.31992  1.0000
  C   C125      1.0  0.42206  0.21357  0.30312  1.0000
  C   C126      1.0  0.43887  0.24824  0.32674  1.0000
  C   C127      1.0  0.47365  0.26440  0.34549  1.0000
  N   N30       1.0  0.38925  0.19721  0.27757  1.0000
  H   H106      1.0  0.48468  0.28908  0.36149  1.0000
  C   C128      1.0  0.42094  0.26576  0.33745  1.0000
  C   C129      1.0  0.40992  0.26946  0.42432  1.0000
  C   C130      1.0  0.42550  0.26781  0.51023  1.0000
  H   H107      1.0  0.42491  0.24400  0.51556  1.0000
  H   H108      1.0  0.41244  0.27026  0.56875  1.0000
  H   H109      1.0  0.45135  0.28808  0.51262  1.0000
  N   N31       1.0  0.37975  0.26802  0.42977  1.0000
  C   C131      1.0  0.38024  0.11815  0.42243  1.0000
  H   H110      1.0  0.38727  0.12924  0.56365  1.0000
  N   N32       1.0  0.40792  0.14818  0.40359  1.0000
  C   C132      1.0  0.49336  0.74847  0.34162  1.0000
  C   C133      1.0  0.47390  0.71296  0.33244  1.0000
  C   C134      1.0  0.43932  0.69524  0.31174  1.0000
  H   H111      1.0  0.48498  0.69878  0.33741  1.0000
  H   H112      1.0  0.37937  0.67612  0.24645  1.0000
  N   N33       1.0  0.40198  0.76558  0.26660  1.0000
  C   C135      1.0  0.41282  0.64604  0.15067  1.0000
  C   C136      1.0  0.40371  0.63779  0.24700  1.0000
  H   H113      1.0  0.41500  0.62592  0.11891  1.0000
  H   H114      1.0  0.43660  0.66912  0.14253  1.0000
  H   H115      1.0  0.39351  0.64868  0.11556  1.0000
  C   C137      1.0  0.42120  0.65970  0.31992  1.0000
  C   C138      1.0  0.42206  0.71357  0.30312  1.0000
  C   C139      1.0  0.43887  0.74823  0.32674  1.0000
  C   C140      1.0  0.47365  0.76440  0.34549  1.0000
  N   N34       1.0  0.38925  0.69720  0.27757  1.0000
  H   H116      1.0  0.48468  0.78908  0.36149  1.0000
  C   C141      1.0  0.42094  0.76577  0.33745  1.0000
  C   C142      1.0  0.40992  0.76946  0.42432  1.0000
  C   C143      1.0  0.42550  0.76781  0.51024  1.0000
  H   H117      1.0  0.42491  0.74399  0.51556  1.0000
  H   H118      1.0  0.41244  0.77025  0.56875  1.0000
  H   H119      1.0  0.45135  0.78808  0.51262  1.0000
  N   N35       1.0  0.37975  0.76802  0.42977  1.0000
  C   C144      1.0  0.38024  0.61815  0.42243  1.0000
  H   H120      1.0  0.38727  0.62924  0.56365  1.0000
  N   N36       1.0  0.40792  0.64818  0.40359  1.0000
  C   C145      1.0  0.99336  0.24847  0.34162  1.0000
  C   C146      1.0  0.97390  0.21296  0.33244  1.0000
  C   C147      1.0  0.93932  0.19524  0.31174  1.0000
  H   H121      1.0  0.98498  0.19878  0.33741  1.0000
  C   C148      1.0  0.52965  0.26659  0.34763  1.0000
  C   C149      1.0  0.58459  0.32076  0.34391  1.0000
  C   C150      1.0  0.54916  0.30232  0.34553  1.0000
  H   H122      1.0  0.53766  0.31613  0.34021  1.0000
  H   H123      1.0  0.64933  0.34269  0.33169  1.0000
  H   H124      1.0  0.87937  0.17612  0.24645  1.0000
  C   C151      1.0  0.77021  0.24855  0.35701  1.0000
  C   C152      1.0  0.80589  0.26490  0.35587  1.0000
  C   C153      1.0  0.82467  0.24887  0.37370  1.0000
  H   H125      1.0  0.81941  0.28957  0.33938  1.0000
  C   C154      1.0  0.75200  0.26637  0.34489  1.0000
  C   C155      1.0  0.69866  0.26675  0.31315  1.0000
  C   C156      1.0  0.71648  0.25017  0.33627  1.0000
  H   H126      1.0  0.70239  0.22501  0.34482  1.0000
  H   H127      1.0  0.67916  0.30692  0.24509  1.0000
  H   H128      1.0  0.84733  0.20849  0.42750  1.0000
  C   C157      1.0  0.77072  0.02604  0.34913  1.0000
  C   C158      1.0  0.75457  0.04560  0.34603  1.0000
  C   C159      1.0  0.77162  0.08100  0.34116  1.0000
  H   H129      1.0  0.72922  0.03416  0.34516  1.0000
  C   C160      1.0  0.75261  0.48975  0.35485  1.0000
  C   C161      1.0  0.75266  0.43540  0.36850  1.0000
  C   C162      1.0  0.76876  0.47025  0.35149  1.0000
  H   H130      1.0  0.79344  0.48132  0.33549  1.0000
  H   H131      1.0  0.71235  0.37223  0.42093  1.0000
  H   H132      1.0  0.81446  0.14598  0.33368  1.0000
  C   C163      1.0  0.64838  0.24239  0.15454  1.0000
  C   C164      1.0  0.64076  0.24437  0.25083  1.0000
  H   H133      1.0  0.62803  0.21977  0.12472  1.0000
  H   H134      1.0  0.67138  0.24153  0.14626  1.0000
  H   H135      1.0  0.65085  0.26395  0.11767  1.0000
  N   N37       1.0  0.61292  0.24649  0.26894  1.0000
  C   C165      1.0  0.66320  0.24951  0.32308  1.0000
  C   C166      1.0  0.76620  0.41754  0.18033  1.0000
  C   C167      1.0  0.77089  0.40474  0.26767  1.0000
  H   H136      1.0  0.78500  0.41951  0.13217  1.0000
  H   H137      1.0  0.76864  0.44211  0.18648  1.0000
  H   H138      1.0  0.74149  0.40030  0.15323  1.0000
  N   N38       1.0  0.76888  0.37434  0.26374  1.0000
  C   C168      1.0  0.77020  0.41768  0.35457  1.0000
  C   C169      1.0  0.61677  0.36311  0.17537  1.0000
  C   C170      1.0  0.62266  0.37513  0.27007  1.0000
  H   H139      1.0  0.61837  0.38272  0.13101  1.0000
  H   H140      1.0  0.59218  0.34110  0.16638  1.0000
  H   H141      1.0  0.63569  0.35690  0.15495  1.0000
  N   N39       1.0  0.65282  0.40271  0.28835  1.0000
  C   C171      1.0  0.60213  0.35643  0.34425  1.0000
  C   C172      1.0  0.85580  0.26283  0.18473  1.0000
  C   C173      1.0  0.87342  0.26727  0.27174  1.0000
  H   H142      1.0  0.87244  0.28198  0.13706  1.0000
  H   H143      1.0  0.83347  0.26490  0.19162  1.0000
  H   H144      1.0  0.84860  0.23834  0.15652  1.0000
  N   N40       1.0  0.90198  0.26557  0.26660  1.0000
  C   C174      1.0  0.85992  0.26628  0.35909  1.0000
  C   C175      1.0  0.76254  0.11451  0.17444  1.0000
  C   C176      1.0  0.75590  0.11972  0.26929  1.0000
  H   H145      1.0  0.74478  0.11645  0.12985  1.0000
  H   H146      1.0  0.76000  0.08999  0.16427  1.0000
  H   H147      1.0  0.78778  0.13357  0.15532  1.0000
  N   N41       1.0  0.75830  0.14968  0.28904  1.0000
  C   C177      1.0  0.75357  0.09860  0.34253  1.0000
  C   C178      1.0  0.91282  0.14604  0.15067  1.0000
  C   C179      1.0  0.90371  0.13778  0.24700  1.0000
  H   H148      1.0  0.91500  0.12592  0.11891  1.0000
  H   H149      1.0  0.93660  0.16912  0.14253  1.0000
  H   H150      1.0  0.89351  0.14868  0.11556  1.0000
  N   N42       1.0  0.87385  0.10983  0.26510  1.0000
  C   C180      1.0  0.92120  0.15970  0.31992  1.0000
  C   C181      1.0  0.92206  0.21357  0.30312  1.0000
  C   C182      1.0  0.93887  0.24824  0.32674  1.0000
  C   C183      1.0  0.97365  0.26440  0.34549  1.0000
  N   N43       1.0  0.88925  0.19721  0.27757  1.0000
  C   C184      1.0  0.54915  0.25037  0.35103  1.0000
  C   C185      1.0  0.58451  0.26729  0.35557  1.0000
  C   C186      1.0  0.60230  0.30288  0.34994  1.0000
  N   N44       1.0  0.63635  0.31984  0.35006  1.0000
  H   H151      1.0  0.64930  0.30980  0.36758  1.0000
  H   H152      1.0  0.87486  0.20658  0.28161  1.0000
  H   H153      1.0  0.98468  0.28908  0.36149  1.0000
  H   H154      1.0  0.53770  0.22502  0.35235  1.0000
  C   C187      1.0  0.80695  0.21407  0.39574  1.0000
  C   C188      1.0  0.77145  0.19545  0.38495  1.0000
  C   C189      1.0  0.75443  0.21301  0.36390  1.0000
  N   N45       1.0  0.82344  0.19801  0.42369  1.0000
  C   C190      1.0  0.76789  0.30201  0.34624  1.0000
  C   C191      1.0  0.75168  0.32038  0.32523  1.0000
  C   C192      1.0  0.71698  0.30226  0.30197  1.0000
  N   N46       1.0  0.70053  0.31845  0.27472  1.0000
  H   H155      1.0  0.70996  0.34224  0.27651  1.0000
  H   H156      1.0  0.81186  0.17645  0.45248  1.0000
  H   H157      1.0  0.72931  0.19867  0.35516  1.0000
  H   H158      1.0  0.79251  0.31579  0.36296  1.0000
  C   C193      1.0  0.80723  0.09868  0.34630  1.0000
  C   C194      1.0  0.82498  0.08083  0.35152  1.0000
  C   C195      1.0  0.80645  0.04545  0.35060  1.0000
  N   N47       1.0  0.82443  0.13273  0.34803  1.0000
  C   C196      1.0  0.71705  0.47007  0.36233  1.0000
  C   C197      1.0  0.69941  0.43535  0.38182  1.0000
  C   C198      1.0  0.71795  0.41834  0.39113  1.0000
  N   N48       1.0  0.70197  0.38575  0.41866  1.0000
  H   H159      1.0  0.68068  0.37588  0.44889  1.0000
  H   H160      1.0  0.84714  0.14534  0.36822  1.0000
  H   H161      1.0  0.82028  0.03398  0.35514  1.0000
  H   H162      1.0  0.70278  0.48104  0.35644  1.0000
  C   C199      1.0  0.60198  0.24912  0.35259  1.0000
  C   C200      1.0  0.62234  0.25011  0.42614  1.0000
  C   C201      1.0  0.61579  0.25536  0.52107  1.0000
  H   H163      1.0  0.61656  0.27920  0.52822  1.0000
  H   H164      1.0  0.63428  0.25531  0.56693  1.0000
  H   H165      1.0  0.59118  0.23531  0.54141  1.0000
  N   N49       1.0  0.65218  0.25214  0.40671  1.0000
  C   C202      1.0  0.76914  0.35585  0.33526  1.0000
  C   C203      1.0  0.77335  0.37111  0.42155  1.0000
  C   C204      1.0  0.77185  0.35430  0.50809  1.0000
  H   H166      1.0  0.74802  0.33113  0.51426  1.0000
  H   H167      1.0  0.77447  0.37011  0.56602  1.0000
  H   H168      1.0  0.79209  0.34868  0.51077  1.0000
  N   N50       1.0  0.77206  0.39993  0.42594  1.0000
  C   C205      1.0  0.66396  0.41680  0.37139  1.0000
  C   C206      1.0  0.64168  0.40027  0.44441  1.0000
  C   C207      1.0  0.65003  0.41152  0.53945  1.0000
  H   H169      1.0  0.67277  0.41183  0.56057  1.0000
  H   H170      1.0  0.62992  0.39511  0.58522  1.0000
  H   H171      1.0  0.65377  0.43666  0.54584  1.0000
  N   N51       1.0  0.61344  0.37048  0.42736  1.0000
  C   C208      1.0  0.92094  0.26576  0.33745  1.0000
  C   C209      1.0  0.90992  0.26946  0.42432  1.0000
  C   C210      1.0  0.92550  0.26781  0.51023  1.0000
  H   H172      1.0  0.92491  0.24400  0.51556  1.0000
  H   H173      1.0  0.91244  0.27026  0.56875  1.0000
  H   H174      1.0  0.95135  0.28808  0.51262  1.0000
  N   N52       1.0  0.87975  0.26802  0.42977  1.0000
  C   C211      1.0  0.75480  0.16011  0.37255  1.0000
  C   C212      1.0  0.74847  0.13722  0.44436  1.0000
  C   C213      1.0  0.74485  0.14476  0.53964  1.0000
  H   H175      1.0  0.76712  0.16731  0.56251  1.0000
  H   H176      1.0  0.74080  0.12428  0.58437  1.0000
  H   H177      1.0  0.72341  0.14847  0.54548  1.0000
  N   N53       1.0  0.75011  0.10910  0.42606  1.0000
  C   C214      1.0  0.86060  0.09815  0.34872  1.0000
  C   C215      1.0  0.88024  0.11815  0.42243  1.0000
  C   C216      1.0  0.86869  0.11095  0.51748  1.0000
  H   H178      1.0  0.84554  0.11150  0.52590  1.0000
  H   H179      1.0  0.88727  0.12924  0.56365  1.0000
  H   H180      1.0  0.86434  0.08628  0.53628  1.0000
  N   N54       1.0  0.90792  0.14818  0.40359  1.0000
  C   C217      1.0  0.99336  0.74847  0.34162  1.0000
  C   C218      1.0  0.97390  0.71296  0.33244  1.0000
  C   C219      1.0  0.93932  0.69524  0.31174  1.0000
  H   H181      1.0  0.98498  0.69878  0.33741  1.0000
  C   C220      1.0  0.52965  0.76659  0.34763  1.0000
  C   C221      1.0  0.58459  0.82076  0.34391  1.0000
  C   C222      1.0  0.54916  0.80232  0.34553  1.0000
  H   H182      1.0  0.53766  0.81613  0.34021  1.0000
  H   H183      1.0  0.64933  0.84269  0.33169  1.0000
  H   H184      1.0  0.87937  0.67612  0.24645  1.0000
  C   C223      1.0  0.77021  0.74855  0.35701  1.0000
  C   C224      1.0  0.80589  0.76490  0.35587  1.0000
  C   C225      1.0  0.82467  0.74887  0.37370  1.0000
  H   H185      1.0  0.81941  0.78957  0.33938  1.0000
  C   C226      1.0  0.75199  0.76637  0.34489  1.0000
  C   C227      1.0  0.69867  0.76675  0.31315  1.0000
  C   C228      1.0  0.71648  0.75017  0.33627  1.0000
  H   H186      1.0  0.70239  0.72501  0.34482  1.0000
  H   H187      1.0  0.67917  0.80692  0.24509  1.0000
  H   H188      1.0  0.84733  0.70849  0.42750  1.0000
  C   C229      1.0  0.77072  0.52604  0.34913  1.0000
  C   C230      1.0  0.75457  0.54560  0.34603  1.0000
  C   C231      1.0  0.77162  0.58100  0.34116  1.0000
  H   H189      1.0  0.72921  0.53416  0.34516  1.0000
  C   C232      1.0  0.75261  0.98975  0.35485  1.0000
  C   C233      1.0  0.75266  0.93540  0.36850  1.0000
  C   C234      1.0  0.76876  0.97025  0.35149  1.0000
  H   H190      1.0  0.79344  0.98132  0.33549  1.0000
  H   H191      1.0  0.71235  0.87223  0.42093  1.0000
  H   H192      1.0  0.81446  0.64598  0.33368  1.0000
  C   C235      1.0  0.64838  0.74239  0.15454  1.0000
  C   C236      1.0  0.64076  0.74437  0.25083  1.0000
  H   H193      1.0  0.62803  0.71977  0.12472  1.0000
  H   H194      1.0  0.67138  0.74153  0.14626  1.0000
  H   H195      1.0  0.65085  0.76395  0.11767  1.0000
  N   N55       1.0  0.61292  0.74649  0.26894  1.0000
  C   C237      1.0  0.66320  0.74951  0.32308  1.0000
  C   C238      1.0  0.76620  0.91754  0.18033  1.0000
  C   C239      1.0  0.77089  0.90474  0.26767  1.0000
  H   H196      1.0  0.78500  0.91951  0.13217  1.0000
  H   H197      1.0  0.76864  0.94211  0.18648  1.0000
  H   H198      1.0  0.74149  0.90030  0.15323  1.0000
  N   N56       1.0  0.76888  0.87434  0.26374  1.0000
  C   C240      1.0  0.77020  0.91768  0.35457  1.0000
  C   C241      1.0  0.61677  0.86311  0.17537  1.0000
  C   C242      1.0  0.62266  0.87513  0.27007  1.0000
  H   H199      1.0  0.61837  0.88272  0.13100  1.0000
  H   H200      1.0  0.59218  0.84110  0.16638  1.0000
  H   H201      1.0  0.63569  0.85690  0.15495  1.0000
  N   N57       1.0  0.65282  0.90271  0.28835  1.0000
  C   C243      1.0  0.60213  0.85643  0.34425  1.0000
  C   C244      1.0  0.85580  0.76284  0.18473  1.0000
  C   C245      1.0  0.87342  0.76727  0.27174  1.0000
  H   H202      1.0  0.87244  0.78198  0.13706  1.0000
  H   H203      1.0  0.83347  0.76490  0.19162  1.0000
  H   H204      1.0  0.84860  0.73833  0.15652  1.0000
  N   N58       1.0  0.90198  0.76558  0.26660  1.0000
  C   C246      1.0  0.85991  0.76628  0.35909  1.0000
  C   C247      1.0  0.76254  0.61451  0.17444  1.0000
  C   C248      1.0  0.75590  0.61972  0.26929  1.0000
  H   H205      1.0  0.74478  0.61645  0.12985  1.0000
  H   H206      1.0  0.76000  0.58998  0.16427  1.0000
  H   H207      1.0  0.78778  0.63357  0.15532  1.0000
  N   N59       1.0  0.75830  0.64968  0.28904  1.0000
  C   C249      1.0  0.75357  0.59860  0.34253  1.0000
  C   C250      1.0  0.91282  0.64604  0.15067  1.0000
  C   C251      1.0  0.90371  0.63779  0.24700  1.0000
  H   H208      1.0  0.91500  0.62592  0.11891  1.0000
  H   H209      1.0  0.93660  0.66912  0.14253  1.0000
  H   H210      1.0  0.89351  0.64868  0.11556  1.0000
  N   N60       1.0  0.87385  0.60983  0.26510  1.0000
  C   C252      1.0  0.92120  0.65970  0.31992  1.0000
  C   C253      1.0  0.92207  0.71357  0.30312  1.0000
  C   C254      1.0  0.93887  0.74823  0.32674  1.0000
  C   C255      1.0  0.97365  0.76440  0.34549  1.0000
  N   N61       1.0  0.88925  0.69720  0.27757  1.0000
  C   C256      1.0  0.54914  0.75037  0.35103  1.0000
  C   C257      1.0  0.58451  0.76729  0.35557  1.0000
  C   C258      1.0  0.60230  0.80288  0.34994  1.0000
  N   N62       1.0  0.63635  0.81984  0.35006  1.0000
  H   H211      1.0  0.64930  0.80980  0.36758  1.0000
  H   H212      1.0  0.87486  0.70658  0.28161  1.0000
  H   H213      1.0  0.98468  0.78908  0.36149  1.0000
  H   H214      1.0  0.53770  0.72503  0.35235  1.0000
  C   C259      1.0  0.80695  0.71407  0.39574  1.0000
  C   C260      1.0  0.77145  0.69545  0.38495  1.0000
  C   C261      1.0  0.75443  0.71301  0.36390  1.0000
  N   N63       1.0  0.82344  0.69801  0.42369  1.0000
  C   C262      1.0  0.76789  0.80200  0.34624  1.0000
  C   C263      1.0  0.75168  0.82038  0.32523  1.0000
  C   C264      1.0  0.71698  0.80226  0.30197  1.0000
  N   N64       1.0  0.70053  0.81845  0.27472  1.0000
  H   H215      1.0  0.70996  0.84225  0.27651  1.0000
  H   H216      1.0  0.81186  0.67645  0.45248  1.0000
  H   H217      1.0  0.72931  0.69867  0.35516  1.0000
  H   H218      1.0  0.79251  0.81579  0.36296  1.0000
  C   C265      1.0  0.80723  0.59868  0.34630  1.0000
  C   C266      1.0  0.82498  0.58083  0.35152  1.0000
  C   C267      1.0  0.80645  0.54545  0.35060  1.0000
  N   N65       1.0  0.82443  0.63273  0.34803  1.0000
  C   C268      1.0  0.71705  0.97007  0.36233  1.0000
  C   C269      1.0  0.69941  0.93535  0.38182  1.0000
  C   C270      1.0  0.71794  0.91834  0.39113  1.0000
  N   N66       1.0  0.70197  0.88576  0.41866  1.0000
  H   H219      1.0  0.68068  0.87588  0.44889  1.0000
  H   H220      1.0  0.84714  0.64534  0.36822  1.0000
  H   H221      1.0  0.82028  0.53398  0.35514  1.0000
  H   H222      1.0  0.70278  0.98104  0.35644  1.0000
  C   C271      1.0  0.60198  0.74912  0.35259  1.0000
  C   C272      1.0  0.62234  0.75011  0.42614  1.0000
  C   C273      1.0  0.61579  0.75536  0.52107  1.0000
  H   H223      1.0  0.61656  0.77920  0.52822  1.0000
  H   H224      1.0  0.63428  0.75531  0.56693  1.0000
  H   H225      1.0  0.59118  0.73532  0.54141  1.0000
  N   N67       1.0  0.65218  0.75214  0.40671  1.0000
  C   C274      1.0  0.76914  0.85585  0.33526  1.0000
  C   C275      1.0  0.77335  0.87111  0.42155  1.0000
  C   C276      1.0  0.77185  0.85430  0.50809  1.0000
  H   H226      1.0  0.74802  0.83113  0.51426  1.0000
  H   H227      1.0  0.77447  0.87011  0.56602  1.0000
  H   H228      1.0  0.79209  0.84867  0.51077  1.0000
  N   N68       1.0  0.77206  0.89993  0.42594  1.0000
  C   C277      1.0  0.66396  0.91680  0.37139  1.0000
  C   C278      1.0  0.64168  0.90027  0.44441  1.0000
  C   C279      1.0  0.65002  0.91152  0.53945  1.0000
  H   H229      1.0  0.67276  0.91183  0.56057  1.0000
  H   H230      1.0  0.62992  0.89511  0.58522  1.0000
  H   H231      1.0  0.65377  0.93666  0.54584  1.0000
  N   N69       1.0  0.61344  0.87048  0.42736  1.0000
  C   C280      1.0  0.92094  0.76577  0.33745  1.0000
  C   C281      1.0  0.90992  0.76946  0.42432  1.0000
  C   C282      1.0  0.92550  0.76781  0.51024  1.0000
  H   H232      1.0  0.92491  0.74399  0.51556  1.0000
  H   H233      1.0  0.91244  0.77025  0.56875  1.0000
  H   H234      1.0  0.95135  0.78808  0.51262  1.0000
  N   N70       1.0  0.87975  0.76802  0.42977  1.0000
  C   C283      1.0  0.75480  0.66011  0.37255  1.0000
  C   C284      1.0  0.74847  0.63722  0.44436  1.0000
  C   C285      1.0  0.74485  0.64476  0.53964  1.0000
  H   H235      1.0  0.76712  0.66731  0.56251  1.0000
  H   H236      1.0  0.74080  0.62428  0.58437  1.0000
  H   H237      1.0  0.72341  0.64847  0.54548  1.0000
  N   N71       1.0  0.75010  0.60910  0.42606  1.0000
  C   C286      1.0  0.86059  0.59815  0.34872  1.0000
  C   C287      1.0  0.88024  0.61815  0.42243  1.0000
  C   C288      1.0  0.86869  0.61095  0.51748  1.0000
  H   H238      1.0  0.84554  0.61150  0.52590  1.0000
  H   H239      1.0  0.88727  0.62924  0.56365  1.0000
  H   H240      1.0  0.86435  0.58628  0.53628  1.0000
  N   N72       1.0  0.90792  0.64818  0.40359  1.0000
