data_image0
_chemical_formula_structural       C8H5C4NH3C3N2C6SiC10H11N2CNH3C8H5C4NH3C3N2C6SiC10H11N2CNH3C8H5C4NH3C3N2C6SiC10H11N2CNH3C8H5C4NH3C3N2C6SiC10H11N2CNH3C8H5C4NH3C3N2C6SiC10H11N2CNH3C8H5C4NH3C3N2C6SiC10H11N2CNH3C8H5C4NH3C3N2C6SiC10H11N2CNH3C8H5C4NH3C3N2C6SiC10H11N2CNH3C8H5C4NH3C3N2C6SiC10H11N2CNH3
_chemical_formula_sum              "C288 H198 N54 Si9"
_cell_length_a       36.2035
_cell_length_b       36.204
_cell_length_c       15.0831
_cell_angle_alpha    90
_cell_angle_beta     90
_cell_angle_gamma    90.0702

_space_group_name_H-M_alt    "P 1"
_space_group_IT_number       1

loop_
  _space_group_symop_operation_xyz
  'x, y, z'

loop_
  _atom_site_type_symbol
  _atom_site_label
  _atom_site_symmetry_multiplicity
  _atom_site_fract_x
  _atom_site_fract_y
  _atom_site_fract_z
  _atom_site_occupancy
  C   C1        1.0  0.03492  0.03474  0.01503  1.0000
  C   C2        1.0  0.05961  0.03671  0.08679  1.0000
  C   C3        1.0  0.07571  0.33720  0.11957  1.0000
  C   C4        1.0  0.05759  0.30335  0.10180  1.0000
  C   C5        1.0  0.03268  0.30140  0.03040  1.0000
  C   C6        1.0  0.24222  0.29642  0.02208  1.0000
  C   C7        1.0  0.22636  0.99677  0.04933  1.0000
  C   C8        1.0  0.24379  0.03043  0.02796  1.0000
  H   H1        1.0  0.07251  0.06152  0.09788  1.0000
  H   H2        1.0  0.06913  0.27899  0.12252  1.0000
  H   H3        1.0  0.02394  0.27579  0.01048  1.0000
  H   H4        1.0  0.22895  0.27186  0.03342  1.0000
  H   H5        1.0  0.23171  0.05518  0.04356  1.0000
  C   C9        1.0  0.02622  0.19983  0.33610  1.0000
  C   C10       1.0  0.00334  0.18244  0.27247  1.0000
  C   C11       1.0  0.33599  0.14340  0.26502  1.0000
  C   C12       1.0  0.35875  0.12266  0.32364  1.0000
  N   N1        1.0  0.31330  0.12695  0.20508  1.0000
  H   H6        1.0  0.29848  0.14154  0.16423  1.0000
  H   H7        1.0  0.31410  0.10041  0.19530  1.0000
  H   H8        1.0  0.98551  0.19795  0.23537  1.0000
  C   C13       1.0  0.11394  0.00182  0.10218  1.0000
  C   C14       1.0  0.12576  0.99952  0.01297  1.0000
  C   C15       1.0  0.18832  0.99751  0.06451  1.0000
  N   N2        1.0  0.17521  0.99978  0.14887  1.0000
  N   N3        1.0  0.13988  0.00173  0.16705  1.0000
  C   C16       1.0  0.35421  0.23579  0.37195  1.0000
  C   C17       1.0  0.31837  0.25115  0.37850  1.0000
  C   C18       1.0  0.31101  0.28034  0.43734  1.0000
  C   C19       1.0  0.33882  0.29392  0.49471  1.0000
  C   C20       1.0  0.04193  0.28080  0.48280  1.0000
  C   C21       1.0  0.04946  0.25238  0.42234  1.0000
  Si  Si1       1.0  0.33081  0.99711  0.55810  1.0000
  C   C22       1.0  0.33779  0.03068  0.48513  1.0000
  C   C23       1.0  0.04083  0.03836  0.45579  1.0000
  C   C24       1.0  0.04755  0.06540  0.39118  1.0000
  C   C25       1.0  0.35154  0.08637  0.35518  1.0000
  C   C26       1.0  0.31501  0.07677  0.37975  1.0000
  C   C27       1.0  0.30820  0.04861  0.44177  1.0000
  C   C28       1.0  0.29024  0.99695  0.60824  1.0000
  C   C29       1.0  0.02425  0.33335  0.64683  1.0000
  C   C30       1.0  0.27430  0.29655  0.63661  1.0000
  C   C31       1.0  0.27590  0.03039  0.64276  1.0000
  H   H9        1.0  0.02780  0.05885  0.65065  1.0000
  H   H10       1.0  0.28491  0.27158  0.61764  1.0000
  H   H11       1.0  0.28768  0.05538  0.62800  1.0000
  H   H12       1.0  0.28133  0.04298  0.45787  1.0000
  H   H13       1.0  0.29299  0.09227  0.35929  1.0000
  H   H14       1.0  0.07441  0.07229  0.37749  1.0000
  H   H15       1.0  0.06324  0.02561  0.48365  1.0000
  H   H16       1.0  0.06352  0.29110  0.51900  1.0000
  H   H17       1.0  0.28457  0.29032  0.44022  1.0000
  H   H18       1.0  0.29650  0.23965  0.34563  1.0000
  H   H19       1.0  0.07585  0.24227  0.41988  1.0000
  N   N4        1.0  0.38140  0.14186  0.37854  1.0000
  N   N5        1.0  0.04858  0.17750  0.38414  1.0000
  C   C32       1.0  0.16339  0.99763  0.65858  1.0000
  N   N6        1.0  0.17347  0.99639  0.57157  1.0000
  H   H20       1.0  0.15510  0.99681  0.52439  1.0000
  H   H21       1.0  0.19913  0.99567  0.55325  1.0000
  H   H22       1.0  0.10679  0.99957  0.62925  1.0000
  C   C33       1.0  0.03492  0.36807  0.01503  1.0000
  C   C34       1.0  0.05961  0.37005  0.08679  1.0000
  C   C35       1.0  0.07571  0.67053  0.11957  1.0000
  C   C36       1.0  0.05759  0.63668  0.10180  1.0000
  C   C37       1.0  0.03268  0.63473  0.03040  1.0000
  C   C38       1.0  0.24222  0.62975  0.02208  1.0000
  C   C39       1.0  0.22637  0.33011  0.04933  1.0000
  C   C40       1.0  0.24379  0.36377  0.02796  1.0000
  H   H23       1.0  0.07251  0.39485  0.09788  1.0000
  H   H24       1.0  0.06913  0.61233  0.12252  1.0000
  H   H25       1.0  0.02394  0.60912  0.01048  1.0000
  H   H26       1.0  0.22895  0.60519  0.03342  1.0000
  H   H27       1.0  0.23171  0.38851  0.04356  1.0000
  C   C41       1.0  0.02622  0.53317  0.33610  1.0000
  C   C42       1.0  0.00334  0.51577  0.27247  1.0000
  C   C43       1.0  0.33599  0.47673  0.26502  1.0000
  C   C44       1.0  0.35875  0.45600  0.32364  1.0000
  N   N7        1.0  0.31330  0.46028  0.20508  1.0000
  H   H28       1.0  0.29848  0.47488  0.16423  1.0000
  H   H29       1.0  0.31410  0.43375  0.19529  1.0000
  H   H30       1.0  0.98551  0.53129  0.23537  1.0000
  C   C45       1.0  0.11394  0.33516  0.10218  1.0000
  C   C46       1.0  0.12576  0.33286  0.01297  1.0000
  C   C47       1.0  0.18832  0.33085  0.06451  1.0000
  N   N8        1.0  0.17521  0.33311  0.14887  1.0000
  N   N9        1.0  0.13988  0.33507  0.16705  1.0000
  C   C48       1.0  0.35421  0.56912  0.37195  1.0000
  C   C49       1.0  0.31837  0.58449  0.37850  1.0000
  C   C50       1.0  0.31101  0.61367  0.43734  1.0000
  C   C51       1.0  0.33882  0.62725  0.49471  1.0000
  C   C52       1.0  0.04193  0.61413  0.48280  1.0000
  C   C53       1.0  0.04946  0.58572  0.42233  1.0000
  Si  Si2       1.0  0.33081  0.33045  0.55810  1.0000
  C   C54       1.0  0.33779  0.36401  0.48513  1.0000
  C   C55       1.0  0.04083  0.37169  0.45579  1.0000
  C   C56       1.0  0.04755  0.39874  0.39118  1.0000
  C   C57       1.0  0.35154  0.41971  0.35518  1.0000
  C   C58       1.0  0.31501  0.41010  0.37975  1.0000
  C   C59       1.0  0.30820  0.38194  0.44177  1.0000
  C   C60       1.0  0.29024  0.33029  0.60824  1.0000
  C   C61       1.0  0.02425  0.66669  0.64683  1.0000
  C   C62       1.0  0.27430  0.62989  0.63661  1.0000
  C   C63       1.0  0.27590  0.36373  0.64276  1.0000
  H   H31       1.0  0.02780  0.39219  0.65065  1.0000
  H   H32       1.0  0.28491  0.60491  0.61764  1.0000
  H   H33       1.0  0.28767  0.38872  0.62800  1.0000
  H   H34       1.0  0.28133  0.37632  0.45787  1.0000
  H   H35       1.0  0.29299  0.42560  0.35929  1.0000
  H   H36       1.0  0.07441  0.40562  0.37749  1.0000
  H   H37       1.0  0.06324  0.35894  0.48365  1.0000
  H   H38       1.0  0.06352  0.62443  0.51900  1.0000
  H   H39       1.0  0.28457  0.62365  0.44022  1.0000
  H   H40       1.0  0.29650  0.57299  0.34563  1.0000
  H   H41       1.0  0.07585  0.57561  0.41988  1.0000
  N   N10       1.0  0.38141  0.47520  0.37854  1.0000
  N   N11       1.0  0.04858  0.51084  0.38414  1.0000
  C   C64       1.0  0.16339  0.33096  0.65858  1.0000
  N   N12       1.0  0.17347  0.32972  0.57157  1.0000
  H   H42       1.0  0.15510  0.33014  0.52439  1.0000
  H   H43       1.0  0.19913  0.32900  0.55325  1.0000
  H   H44       1.0  0.10679  0.33290  0.62925  1.0000
  C   C65       1.0  0.03492  0.70140  0.01503  1.0000
  C   C66       1.0  0.05961  0.70338  0.08679  1.0000
  C   C67       1.0  0.07571  0.00386  0.11957  1.0000
  C   C68       1.0  0.05759  0.97002  0.10180  1.0000
  C   C69       1.0  0.03268  0.96806  0.03040  1.0000
  C   C70       1.0  0.24222  0.96308  0.02208  1.0000
  C   C71       1.0  0.22637  0.66344  0.04933  1.0000
  C   C72       1.0  0.24379  0.69710  0.02796  1.0000
  H   H45       1.0  0.07251  0.72818  0.09788  1.0000
  H   H46       1.0  0.06913  0.94566  0.12252  1.0000
  H   H47       1.0  0.02394  0.94246  0.01048  1.0000
  H   H48       1.0  0.22895  0.93852  0.03342  1.0000
  H   H49       1.0  0.23171  0.72184  0.04356  1.0000
  C   C73       1.0  0.02622  0.86650  0.33610  1.0000
  C   C74       1.0  0.00334  0.84910  0.27247  1.0000
  C   C75       1.0  0.33599  0.81007  0.26502  1.0000
  C   C76       1.0  0.35875  0.78933  0.32364  1.0000
  N   N13       1.0  0.31330  0.79361  0.20508  1.0000
  H   H50       1.0  0.29848  0.80821  0.16423  1.0000
  H   H51       1.0  0.31410  0.76708  0.19530  1.0000
  H   H52       1.0  0.98551  0.86462  0.23537  1.0000
  C   C77       1.0  0.11394  0.66849  0.10218  1.0000
  C   C78       1.0  0.12576  0.66619  0.01297  1.0000
  C   C79       1.0  0.18832  0.66418  0.06451  1.0000
  N   N14       1.0  0.17521  0.66645  0.14887  1.0000
  N   N15       1.0  0.13988  0.66840  0.16705  1.0000
  C   C80       1.0  0.35421  0.90245  0.37195  1.0000
  C   C81       1.0  0.31837  0.91782  0.37850  1.0000
  C   C82       1.0  0.31101  0.94701  0.43734  1.0000
  C   C83       1.0  0.33882  0.96059  0.49471  1.0000
  C   C84       1.0  0.04193  0.94747  0.48280  1.0000
  C   C85       1.0  0.04946  0.91905  0.42233  1.0000
  Si  Si3       1.0  0.33081  0.66378  0.55810  1.0000
  C   C86       1.0  0.33779  0.69735  0.48513  1.0000
  C   C87       1.0  0.04083  0.70503  0.45579  1.0000
  C   C88       1.0  0.04755  0.73207  0.39118  1.0000
  C   C89       1.0  0.35154  0.75304  0.35518  1.0000
  C   C90       1.0  0.31501  0.74343  0.37975  1.0000
  C   C91       1.0  0.30820  0.71527  0.44178  1.0000
  C   C92       1.0  0.29024  0.66362  0.60824  1.0000
  C   C93       1.0  0.02425  0.00002  0.64683  1.0000
  C   C94       1.0  0.27430  0.96322  0.63661  1.0000
  C   C95       1.0  0.27590  0.69706  0.64276  1.0000
  H   H53       1.0  0.02780  0.72552  0.65065  1.0000
  H   H54       1.0  0.28491  0.93825  0.61764  1.0000
  H   H55       1.0  0.28767  0.72205  0.62800  1.0000
  H   H56       1.0  0.28133  0.70965  0.45787  1.0000
  H   H57       1.0  0.29299  0.75893  0.35929  1.0000
  H   H58       1.0  0.07441  0.73896  0.37749  1.0000
  H   H59       1.0  0.06324  0.69228  0.48365  1.0000
  H   H60       1.0  0.06352  0.95776  0.51900  1.0000
  H   H61       1.0  0.28457  0.95698  0.44022  1.0000
  H   H62       1.0  0.29650  0.90632  0.34563  1.0000
  H   H63       1.0  0.07585  0.90894  0.41988  1.0000
  N   N16       1.0  0.38141  0.80853  0.37854  1.0000
  N   N17       1.0  0.04858  0.84417  0.38414  1.0000
  C   C96       1.0  0.16339  0.66429  0.65858  1.0000
  N   N18       1.0  0.17347  0.66305  0.57157  1.0000
  H   H64       1.0  0.15510  0.66347  0.52439  1.0000
  H   H65       1.0  0.19913  0.66234  0.55325  1.0000
  H   H66       1.0  0.10679  0.66624  0.62925  1.0000
  C   C97       1.0  0.36825  0.03474  0.01503  1.0000
  C   C98       1.0  0.39294  0.03671  0.08679  1.0000
  C   C99       1.0  0.40904  0.33720  0.11957  1.0000
  C   C100      1.0  0.39092  0.30335  0.10180  1.0000
  C   C101      1.0  0.36601  0.30140  0.03040  1.0000
  C   C102      1.0  0.57556  0.29642  0.02208  1.0000
  C   C103      1.0  0.55970  0.99677  0.04933  1.0000
  C   C104      1.0  0.57712  0.03043  0.02796  1.0000
  H   H67       1.0  0.40585  0.06152  0.09788  1.0000
  H   H68       1.0  0.40246  0.27899  0.12252  1.0000
  H   H69       1.0  0.35727  0.27579  0.01048  1.0000
  H   H70       1.0  0.56229  0.27186  0.03342  1.0000
  H   H71       1.0  0.56504  0.05518  0.04356  1.0000
  C   C105      1.0  0.35956  0.19983  0.33610  1.0000
  C   C106      1.0  0.33668  0.18244  0.27247  1.0000
  C   C107      1.0  0.66932  0.14340  0.26502  1.0000
  C   C108      1.0  0.69208  0.12266  0.32364  1.0000
  N   N19       1.0  0.64663  0.12695  0.20508  1.0000
  H   H72       1.0  0.63181  0.14154  0.16423  1.0000
  H   H73       1.0  0.64743  0.10041  0.19530  1.0000
  H   H74       1.0  0.31884  0.19795  0.23537  1.0000
  C   C109      1.0  0.44728  0.00182  0.10218  1.0000
  C   C110      1.0  0.45909  0.99952  0.01297  1.0000
  C   C111      1.0  0.52165  0.99751  0.06451  1.0000
  N   N20       1.0  0.50855  0.99978  0.14887  1.0000
  N   N21       1.0  0.47322  0.00173  0.16705  1.0000
  C   C112      1.0  0.68755  0.23579  0.37195  1.0000
  C   C113      1.0  0.65171  0.25115  0.37850  1.0000
  C   C114      1.0  0.64434  0.28034  0.43734  1.0000
  C   C115      1.0  0.67215  0.29392  0.49471  1.0000
  C   C116      1.0  0.37526  0.28080  0.48280  1.0000
  C   C117      1.0  0.38279  0.25238  0.42234  1.0000
  Si  Si4       1.0  0.66414  0.99711  0.55810  1.0000
  C   C118      1.0  0.67113  0.03068  0.48513  1.0000
  C   C119      1.0  0.37416  0.03836  0.45579  1.0000
  C   C120      1.0  0.38089  0.06540  0.39118  1.0000
  C   C121      1.0  0.68487  0.08637  0.35518  1.0000
  C   C122      1.0  0.64834  0.07677  0.37975  1.0000
  C   C123      1.0  0.64153  0.04861  0.44177  1.0000
  C   C124      1.0  0.62358  0.99695  0.60824  1.0000
  C   C125      1.0  0.35758  0.33335  0.64683  1.0000
  C   C126      1.0  0.60763  0.29655  0.63661  1.0000
  C   C127      1.0  0.60924  0.03039  0.64276  1.0000
  H   H75       1.0  0.36114  0.05885  0.65065  1.0000
  H   H76       1.0  0.61824  0.27158  0.61764  1.0000
  H   H77       1.0  0.62101  0.05538  0.62800  1.0000
  H   H78       1.0  0.61466  0.04298  0.45787  1.0000
  H   H79       1.0  0.62632  0.09227  0.35929  1.0000
  H   H80       1.0  0.40774  0.07229  0.37749  1.0000
  H   H81       1.0  0.39657  0.02561  0.48365  1.0000
  H   H82       1.0  0.39686  0.29110  0.51900  1.0000
  H   H83       1.0  0.61790  0.29032  0.44022  1.0000
  H   H84       1.0  0.62983  0.23965  0.34563  1.0000
  H   H85       1.0  0.40918  0.24227  0.41988  1.0000
  N   N22       1.0  0.71474  0.14186  0.37854  1.0000
  N   N23       1.0  0.38191  0.17750  0.38414  1.0000
  C   C128      1.0  0.49672  0.99763  0.65858  1.0000
  N   N24       1.0  0.50680  0.99639  0.57157  1.0000
  H   H86       1.0  0.48843  0.99681  0.52439  1.0000
  H   H87       1.0  0.53246  0.99567  0.55325  1.0000
  H   H88       1.0  0.44012  0.99957  0.62925  1.0000
  C   C129      1.0  0.36825  0.36807  0.01503  1.0000
  C   C130      1.0  0.39294  0.37005  0.08679  1.0000
  C   C131      1.0  0.40904  0.67053  0.11957  1.0000
  C   C132      1.0  0.39092  0.63668  0.10180  1.0000
  C   C133      1.0  0.36601  0.63473  0.03040  1.0000
  C   C134      1.0  0.57556  0.62975  0.02208  1.0000
  C   C135      1.0  0.55970  0.33011  0.04933  1.0000
  C   C136      1.0  0.57712  0.36377  0.02796  1.0000
  H   H89       1.0  0.40585  0.39485  0.09788  1.0000
  H   H90       1.0  0.40246  0.61233  0.12252  1.0000
  H   H91       1.0  0.35728  0.60912  0.01048  1.0000
  H   H92       1.0  0.56229  0.60519  0.03342  1.0000
  H   H93       1.0  0.56504  0.38851  0.04356  1.0000
  C   C137      1.0  0.35956  0.53317  0.33610  1.0000
  C   C138      1.0  0.33668  0.51577  0.27247  1.0000
  C   C139      1.0  0.66932  0.47673  0.26502  1.0000
  C   C140      1.0  0.69208  0.45600  0.32364  1.0000
  N   N25       1.0  0.64663  0.46028  0.20508  1.0000
  H   H94       1.0  0.63181  0.47488  0.16423  1.0000
  H   H95       1.0  0.64743  0.43375  0.19529  1.0000
  H   H96       1.0  0.31884  0.53129  0.23537  1.0000
  C   C141      1.0  0.44728  0.33516  0.10218  1.0000
  C   C142      1.0  0.45909  0.33286  0.01297  1.0000
  C   C143      1.0  0.52165  0.33085  0.06451  1.0000
  N   N26       1.0  0.50855  0.33311  0.14887  1.0000
  N   N27       1.0  0.47322  0.33507  0.16705  1.0000
  C   C144      1.0  0.68755  0.56912  0.37195  1.0000
  C   C145      1.0  0.65171  0.58449  0.37850  1.0000
  C   C146      1.0  0.64434  0.61367  0.43734  1.0000
  C   C147      1.0  0.67215  0.62725  0.49471  1.0000
  C   C148      1.0  0.37526  0.61413  0.48280  1.0000
  C   C149      1.0  0.38279  0.58572  0.42233  1.0000
  Si  Si5       1.0  0.66414  0.33045  0.55810  1.0000
  C   C150      1.0  0.67113  0.36401  0.48513  1.0000
  C   C151      1.0  0.37416  0.37169  0.45579  1.0000
  C   C152      1.0  0.38089  0.39874  0.39118  1.0000
  C   C153      1.0  0.68487  0.41971  0.35518  1.0000
  C   C154      1.0  0.64834  0.41010  0.37975  1.0000
  C   C155      1.0  0.64153  0.38194  0.44177  1.0000
  C   C156      1.0  0.62358  0.33029  0.60824  1.0000
  C   C157      1.0  0.35758  0.66669  0.64683  1.0000
  C   C158      1.0  0.60763  0.62989  0.63661  1.0000
  C   C159      1.0  0.60923  0.36373  0.64276  1.0000
  H   H97       1.0  0.36114  0.39219  0.65065  1.0000
  H   H98       1.0  0.61824  0.60491  0.61764  1.0000
  H   H99       1.0  0.62101  0.38872  0.62800  1.0000
  H   H100      1.0  0.61466  0.37632  0.45787  1.0000
  H   H101      1.0  0.62632  0.42560  0.35929  1.0000
  H   H102      1.0  0.40774  0.40562  0.37749  1.0000
  H   H103      1.0  0.39657  0.35894  0.48365  1.0000
  H   H104      1.0  0.39686  0.62443  0.51900  1.0000
  H   H105      1.0  0.61790  0.62365  0.44022  1.0000
  H   H106      1.0  0.62983  0.57299  0.34563  1.0000
  H   H107      1.0  0.40918  0.57561  0.41988  1.0000
  N   N28       1.0  0.71474  0.47520  0.37854  1.0000
  N   N29       1.0  0.38191  0.51084  0.38414  1.0000
  C   C160      1.0  0.49672  0.33096  0.65858  1.0000
  N   N30       1.0  0.50680  0.32972  0.57157  1.0000
  H   H108      1.0  0.48843  0.33014  0.52439  1.0000
  H   H109      1.0  0.53246  0.32900  0.55325  1.0000
  H   H110      1.0  0.44012  0.33290  0.62925  1.0000
  C   C161      1.0  0.36825  0.70140  0.01503  1.0000
  C   C162      1.0  0.39294  0.70338  0.08679  1.0000
  C   C163      1.0  0.40904  0.00386  0.11957  1.0000
  C   C164      1.0  0.39092  0.97002  0.10180  1.0000
  C   C165      1.0  0.36601  0.96806  0.03040  1.0000
  C   C166      1.0  0.57556  0.96308  0.02208  1.0000
  C   C167      1.0  0.55970  0.66344  0.04933  1.0000
  C   C168      1.0  0.57712  0.69710  0.02796  1.0000
  H   H111      1.0  0.40585  0.72818  0.09788  1.0000
  H   H112      1.0  0.40246  0.94566  0.12252  1.0000
  H   H113      1.0  0.35728  0.94246  0.01048  1.0000
  H   H114      1.0  0.56229  0.93852  0.03342  1.0000
  H   H115      1.0  0.56504  0.72184  0.04356  1.0000
  C   C169      1.0  0.35956  0.86650  0.33610  1.0000
  C   C170      1.0  0.33668  0.84910  0.27247  1.0000
  C   C171      1.0  0.66932  0.81007  0.26502  1.0000
  C   C172      1.0  0.69208  0.78933  0.32364  1.0000
  N   N31       1.0  0.64663  0.79361  0.20508  1.0000
  H   H116      1.0  0.63181  0.80821  0.16423  1.0000
  H   H117      1.0  0.64743  0.76708  0.19530  1.0000
  H   H118      1.0  0.31884  0.86462  0.23537  1.0000
  C   C173      1.0  0.44728  0.66849  0.10218  1.0000
  C   C174      1.0  0.45909  0.66619  0.01297  1.0000
  C   C175      1.0  0.52165  0.66418  0.06451  1.0000
  N   N32       1.0  0.50855  0.66645  0.14887  1.0000
  N   N33       1.0  0.47322  0.66840  0.16705  1.0000
  C   C176      1.0  0.68755  0.90245  0.37195  1.0000
  C   C177      1.0  0.65171  0.91782  0.37850  1.0000
  C   C178      1.0  0.64434  0.94701  0.43734  1.0000
  C   C179      1.0  0.67215  0.96059  0.49471  1.0000
  C   C180      1.0  0.37526  0.94747  0.48280  1.0000
  C   C181      1.0  0.38279  0.91905  0.42233  1.0000
  Si  Si6       1.0  0.66414  0.66378  0.55810  1.0000
  C   C182      1.0  0.67113  0.69735  0.48513  1.0000
  C   C183      1.0  0.37416  0.70503  0.45579  1.0000
  C   C184      1.0  0.38088  0.73207  0.39118  1.0000
  C   C185      1.0  0.68487  0.75304  0.35518  1.0000
  C   C186      1.0  0.64834  0.74343  0.37975  1.0000
  C   C187      1.0  0.64154  0.71527  0.44178  1.0000
  C   C188      1.0  0.62358  0.66362  0.60824  1.0000
  C   C189      1.0  0.35758  0.00002  0.64683  1.0000
  C   C190      1.0  0.60763  0.96322  0.63661  1.0000
  C   C191      1.0  0.60923  0.69706  0.64276  1.0000
  H   H119      1.0  0.36114  0.72552  0.65065  1.0000
  H   H120      1.0  0.61824  0.93825  0.61764  1.0000
  H   H121      1.0  0.62101  0.72205  0.62800  1.0000
  H   H122      1.0  0.61466  0.70965  0.45787  1.0000
  H   H123      1.0  0.62632  0.75893  0.35929  1.0000
  H   H124      1.0  0.40774  0.73896  0.37749  1.0000
  H   H125      1.0  0.39657  0.69228  0.48365  1.0000
  H   H126      1.0  0.39686  0.95776  0.51900  1.0000
  H   H127      1.0  0.61790  0.95698  0.44022  1.0000
  H   H128      1.0  0.62983  0.90632  0.34563  1.0000
  H   H129      1.0  0.40918  0.90894  0.41988  1.0000
  N   N34       1.0  0.71474  0.80853  0.37854  1.0000
  N   N35       1.0  0.38191  0.84417  0.38414  1.0000
  C   C192      1.0  0.49672  0.66429  0.65858  1.0000
  N   N36       1.0  0.50680  0.66305  0.57157  1.0000
  H   H130      1.0  0.48843  0.66347  0.52439  1.0000
  H   H131      1.0  0.53246  0.66234  0.55325  1.0000
  H   H132      1.0  0.44012  0.66624  0.62925  1.0000
  C   C193      1.0  0.70159  0.03474  0.01503  1.0000
  C   C194      1.0  0.72628  0.03671  0.08679  1.0000
  C   C195      1.0  0.74237  0.33720  0.11957  1.0000
  C   C196      1.0  0.72425  0.30335  0.10180  1.0000
  C   C197      1.0  0.69934  0.30140  0.03040  1.0000
  C   C198      1.0  0.90889  0.29642  0.02208  1.0000
  C   C199      1.0  0.89303  0.99677  0.04933  1.0000
  C   C200      1.0  0.91045  0.03043  0.02796  1.0000
  H   H133      1.0  0.73918  0.06152  0.09788  1.0000
  H   H134      1.0  0.73579  0.27899  0.12252  1.0000
  H   H135      1.0  0.69061  0.27579  0.01048  1.0000
  H   H136      1.0  0.89562  0.27186  0.03342  1.0000
  H   H137      1.0  0.89837  0.05518  0.04356  1.0000
  C   C201      1.0  0.69289  0.19983  0.33610  1.0000
  C   C202      1.0  0.67001  0.18244  0.27247  1.0000
  C   C203      1.0  0.00266  0.14340  0.26502  1.0000
  C   C204      1.0  0.02542  0.12266  0.32364  1.0000
  N   N37       1.0  0.97996  0.12695  0.20508  1.0000
  H   H138      1.0  0.96514  0.14154  0.16423  1.0000
  H   H139      1.0  0.98076  0.10041  0.19530  1.0000
  H   H140      1.0  0.65218  0.19795  0.23537  1.0000
  C   C205      1.0  0.78061  0.00182  0.10218  1.0000
  C   C206      1.0  0.79242  0.99952  0.01297  1.0000
  C   C207      1.0  0.85499  0.99751  0.06451  1.0000
  N   N38       1.0  0.84188  0.99978  0.14887  1.0000
  N   N39       1.0  0.80655  0.00173  0.16705  1.0000
  C   C208      1.0  0.02088  0.23579  0.37195  1.0000
  C   C209      1.0  0.98504  0.25115  0.37850  1.0000
  C   C210      1.0  0.97768  0.28034  0.43734  1.0000
  C   C211      1.0  0.00549  0.29392  0.49471  1.0000
  C   C212      1.0  0.70859  0.28080  0.48280  1.0000
  C   C213      1.0  0.71613  0.25238  0.42234  1.0000
  Si  Si7       1.0  0.99747  0.99711  0.55810  1.0000
  C   C214      1.0  0.00446  0.03068  0.48513  1.0000
  C   C215      1.0  0.70750  0.03836  0.45579  1.0000
  C   C216      1.0  0.71422  0.06540  0.39118  1.0000
  C   C217      1.0  0.01821  0.08637  0.35518  1.0000
  C   C218      1.0  0.98167  0.07677  0.37975  1.0000
  C   C219      1.0  0.97487  0.04861  0.44177  1.0000
  C   C220      1.0  0.95691  0.99695  0.60824  1.0000
  C   C221      1.0  0.69092  0.33335  0.64683  1.0000
  C   C222      1.0  0.94096  0.29655  0.63661  1.0000
  C   C223      1.0  0.94257  0.03039  0.64276  1.0000
  H   H141      1.0  0.69447  0.05885  0.65065  1.0000
  H   H142      1.0  0.95158  0.27158  0.61764  1.0000
  H   H143      1.0  0.95434  0.05538  0.62800  1.0000
  H   H144      1.0  0.94799  0.04298  0.45787  1.0000
  H   H145      1.0  0.95966  0.09227  0.35929  1.0000
  H   H146      1.0  0.74108  0.07229  0.37749  1.0000
  H   H147      1.0  0.72990  0.02561  0.48365  1.0000
  H   H148      1.0  0.73019  0.29110  0.51900  1.0000
  H   H149      1.0  0.95124  0.29032  0.44022  1.0000
  H   H150      1.0  0.96317  0.23965  0.34563  1.0000
  H   H151      1.0  0.74251  0.24227  0.41988  1.0000
  N   N40       1.0  0.04807  0.14186  0.37854  1.0000
  N   N41       1.0  0.71524  0.17750  0.38414  1.0000
  C   C224      1.0  0.83005  0.99763  0.65858  1.0000
  N   N42       1.0  0.84013  0.99639  0.57157  1.0000
  H   H152      1.0  0.82176  0.99681  0.52439  1.0000
  H   H153      1.0  0.86580  0.99567  0.55325  1.0000
  H   H154      1.0  0.77346  0.99957  0.62925  1.0000
  C   C225      1.0  0.70159  0.36807  0.01503  1.0000
  C   C226      1.0  0.72628  0.37005  0.08679  1.0000
  C   C227      1.0  0.74237  0.67053  0.11957  1.0000
  C   C228      1.0  0.72425  0.63668  0.10180  1.0000
  C   C229      1.0  0.69935  0.63473  0.03040  1.0000
  C   C230      1.0  0.90889  0.62975  0.02208  1.0000
  C   C231      1.0  0.89303  0.33011  0.04933  1.0000
  C   C232      1.0  0.91045  0.36377  0.02796  1.0000
  H   H155      1.0  0.73918  0.39485  0.09788  1.0000
  H   H156      1.0  0.73579  0.61233  0.12252  1.0000
  H   H157      1.0  0.69061  0.60912  0.01048  1.0000
  H   H158      1.0  0.89562  0.60519  0.03342  1.0000
  H   H159      1.0  0.89837  0.38851  0.04356  1.0000
  C   C233      1.0  0.69289  0.53317  0.33610  1.0000
  C   C234      1.0  0.67001  0.51577  0.27247  1.0000
  C   C235      1.0  0.00266  0.47673  0.26502  1.0000
  C   C236      1.0  0.02542  0.45600  0.32364  1.0000
  N   N43       1.0  0.97996  0.46028  0.20508  1.0000
  H   H160      1.0  0.96514  0.47488  0.16423  1.0000
  H   H161      1.0  0.98076  0.43375  0.19529  1.0000
  H   H162      1.0  0.65218  0.53129  0.23537  1.0000
  C   C237      1.0  0.78061  0.33516  0.10218  1.0000
  C   C238      1.0  0.79242  0.33286  0.01297  1.0000
  C   C239      1.0  0.85499  0.33085  0.06451  1.0000
  N   N44       1.0  0.84188  0.33311  0.14887  1.0000
  N   N45       1.0  0.80655  0.33507  0.16705  1.0000
  C   C240      1.0  0.02088  0.56912  0.37195  1.0000
  C   C241      1.0  0.98504  0.58449  0.37850  1.0000
  C   C242      1.0  0.97768  0.61367  0.43734  1.0000
  C   C243      1.0  0.00549  0.62725  0.49471  1.0000
  C   C244      1.0  0.70860  0.61413  0.48280  1.0000
  C   C245      1.0  0.71612  0.58572  0.42233  1.0000
  Si  Si8       1.0  0.99747  0.33045  0.55810  1.0000
  C   C246      1.0  0.00446  0.36401  0.48513  1.0000
  C   C247      1.0  0.70750  0.37169  0.45579  1.0000
  C   C248      1.0  0.71422  0.39874  0.39118  1.0000
  C   C249      1.0  0.01821  0.41971  0.35518  1.0000
  C   C250      1.0  0.98167  0.41010  0.37975  1.0000
  C   C251      1.0  0.97487  0.38194  0.44177  1.0000
  C   C252      1.0  0.95691  0.33029  0.60824  1.0000
  C   C253      1.0  0.69092  0.66669  0.64683  1.0000
  C   C254      1.0  0.94096  0.62989  0.63661  1.0000
  C   C255      1.0  0.94257  0.36373  0.64276  1.0000
  H   H163      1.0  0.69447  0.39219  0.65065  1.0000
  H   H164      1.0  0.95158  0.60491  0.61764  1.0000
  H   H165      1.0  0.95434  0.38872  0.62800  1.0000
  H   H166      1.0  0.94799  0.37632  0.45787  1.0000
  H   H167      1.0  0.95966  0.42560  0.35929  1.0000
  H   H168      1.0  0.74108  0.40562  0.37749  1.0000
  H   H169      1.0  0.72990  0.35894  0.48365  1.0000
  H   H170      1.0  0.73019  0.62443  0.51900  1.0000
  H   H171      1.0  0.95124  0.62365  0.44022  1.0000
  H   H172      1.0  0.96317  0.57299  0.34563  1.0000
  H   H173      1.0  0.74251  0.57561  0.41988  1.0000
  N   N46       1.0  0.04807  0.47520  0.37854  1.0000
  N   N47       1.0  0.71524  0.51084  0.38414  1.0000
  C   C256      1.0  0.83005  0.33096  0.65858  1.0000
  N   N48       1.0  0.84013  0.32972  0.57157  1.0000
  H   H174      1.0  0.82176  0.33014  0.52439  1.0000
  H   H175      1.0  0.86580  0.32900  0.55325  1.0000
  H   H176      1.0  0.77346  0.33290  0.62925  1.0000
  C   C257      1.0  0.70159  0.70140  0.01503  1.0000
  C   C258      1.0  0.72628  0.70338  0.08679  1.0000
  C   C259      1.0  0.74237  0.00386  0.11957  1.0000
  C   C260      1.0  0.72425  0.97002  0.10180  1.0000
  C   C261      1.0  0.69935  0.96806  0.03040  1.0000
  C   C262      1.0  0.90889  0.96308  0.02208  1.0000
  C   C263      1.0  0.89303  0.66344  0.04933  1.0000
  C   C264      1.0  0.91045  0.69710  0.02796  1.0000
  H   H177      1.0  0.73918  0.72818  0.09788  1.0000
  H   H178      1.0  0.73579  0.94566  0.12252  1.0000
  H   H179      1.0  0.69061  0.94246  0.01048  1.0000
  H   H180      1.0  0.89562  0.93852  0.03342  1.0000
  H   H181      1.0  0.89837  0.72184  0.04356  1.0000
  C   C265      1.0  0.69289  0.86650  0.33610  1.0000
  C   C266      1.0  0.67001  0.84910  0.27247  1.0000
  C   C267      1.0  0.00266  0.81007  0.26502  1.0000
  C   C268      1.0  0.02542  0.78933  0.32364  1.0000
  N   N49       1.0  0.97996  0.79361  0.20508  1.0000
  H   H182      1.0  0.96514  0.80821  0.16423  1.0000
  H   H183      1.0  0.98076  0.76708  0.19530  1.0000
  H   H184      1.0  0.65218  0.86462  0.23537  1.0000
  C   C269      1.0  0.78061  0.66849  0.10218  1.0000
  C   C270      1.0  0.79242  0.66619  0.01297  1.0000
  C   C271      1.0  0.85499  0.66418  0.06451  1.0000
  N   N50       1.0  0.84188  0.66645  0.14887  1.0000
  N   N51       1.0  0.80655  0.66840  0.16705  1.0000
  C   C272      1.0  0.02088  0.90245  0.37195  1.0000
  C   C273      1.0  0.98504  0.91782  0.37850  1.0000
  C   C274      1.0  0.97768  0.94701  0.43734  1.0000
  C   C275      1.0  0.00549  0.96059  0.49471  1.0000
  C   C276      1.0  0.70860  0.94747  0.48280  1.0000
  C   C277      1.0  0.71612  0.91905  0.42233  1.0000
  Si  Si9       1.0  0.99747  0.66378  0.55810  1.0000
  C   C278      1.0  0.00446  0.69735  0.48513  1.0000
  C   C279      1.0  0.70750  0.70503  0.45579  1.0000
  C   C280      1.0  0.71422  0.73207  0.39118  1.0000
  C   C281      1.0  0.01821  0.75304  0.35518  1.0000
  C   C282      1.0  0.98167  0.74343  0.37975  1.0000
  C   C283      1.0  0.97487  0.71527  0.44178  1.0000
  C   C284      1.0  0.95691  0.66362  0.60824  1.0000
  C   C285      1.0  0.69092  0.00002  0.64683  1.0000
  C   C286      1.0  0.94096  0.96322  0.63661  1.0000
  C   C287      1.0  0.94257  0.69706  0.64276  1.0000
  H   H185      1.0  0.69447  0.72552  0.65065  1.0000
  H   H186      1.0  0.95157  0.93825  0.61764  1.0000
  H   H187      1.0  0.95434  0.72205  0.62800  1.0000
  H   H188      1.0  0.94799  0.70965  0.45787  1.0000
  H   H189      1.0  0.95966  0.75893  0.35929  1.0000
  H   H190      1.0  0.74108  0.73896  0.37749  1.0000
  H   H191      1.0  0.72990  0.69228  0.48365  1.0000
  H   H192      1.0  0.73019  0.95776  0.51900  1.0000
  H   H193      1.0  0.95124  0.95698  0.44022  1.0000
  H   H194      1.0  0.96317  0.90632  0.34563  1.0000
  H   H195      1.0  0.74251  0.90894  0.41988  1.0000
  N   N52       1.0  0.04807  0.80853  0.37854  1.0000
  N   N53       1.0  0.71524  0.84417  0.38414  1.0000
  C   C288      1.0  0.83005  0.66429  0.65858  1.0000
  N   N54       1.0  0.84013  0.66305  0.57157  1.0000
  H   H196      1.0  0.82176  0.66347  0.52439  1.0000
  H   H197      1.0  0.86580  0.66234  0.55325  1.0000
  H   H198      1.0  0.77346  0.66624  0.62925  1.0000
