data_image0
_chemical_formula_structural       C4HOC2HC2HC2H2C3NH2C3H2C4HOC2HC2HC2H2C3NH2C3H2C4HOC5OC3H2C2H3C2H2C4H2C2H2CHC4HNH2CNHC4HNH2C4HOC5OC3H2C2H3C2H2C4H2C2H2CHC4HNH2CNHC4HNH2C3OH2COH2C2H3C3OH2COH2C2H3C4OHC2H2C2H2C2H2C4HNH2C4HNHC4OHC2H2C2H2C2H2C4HNH2C4HNHC4HOC4OHC4HOC4OHC4HOC4OHC2H2C2H2C2H2C2H2C2H2C2H2C4H4C4H4C4H4C4HNH2C4HNH2C4HNH2C4HNH2C4HNH2C4HNH2C4HOC4OHC4HOC4OHC4HOC4OHC2H2C2H2C2H2C2H2C2H2C2H2C4H4C4H4C4H4C4HNH2C4HNH2C4HNH2C4HNH2C4HNH2C4HNH2
_chemical_formula_sum              "C288 H192 O24 N24"
_cell_length_a       46.7492
_cell_length_b       46.7493
_cell_length_c       14.7855
_cell_angle_alpha    90
_cell_angle_beta     90
_cell_angle_gamma    120

_space_group_name_H-M_alt    "P 1"
_space_group_IT_number       1

loop_
  _space_group_symop_operation_xyz
  'x, y, z'

loop_
  _atom_site_type_symbol
  _atom_site_label
  _atom_site_symmetry_multiplicity
  _atom_site_fract_x
  _atom_site_fract_y
  _atom_site_fract_z
  _atom_site_occupancy
  C   C1        1.0  0.02885  0.26622  0.34874  1.0000
  C   C2        1.0  0.04807  0.30162  0.34813  1.0000
  C   C3        1.0  0.08305  0.31965  0.34749  1.0000
  C   C4        1.0  0.10028  0.30200  0.34932  1.0000
  H   H1        1.0  0.03698  0.31559  0.34723  1.0000
  O   O1        1.0  0.13404  0.31889  0.35080  1.0000
  C   C5        1.0  0.11801  0.25212  0.26647  1.0000
  C   C6        1.0  0.14819  0.25226  0.26500  1.0000
  H   H2        1.0  0.11019  0.25734  0.20719  1.0000
  C   C7        1.0  0.14865  0.40011  0.26636  1.0000
  C   C8        1.0  0.11863  0.36992  0.26504  1.0000
  H   H3        1.0  0.11136  0.35715  0.20526  1.0000
  C   C9        1.0  0.08311  0.26711  0.34855  1.0000
  C   C10       1.0  0.04813  0.25010  0.34884  1.0000
  H   H4        1.0  0.14032  0.32220  0.41505  1.0000
  H   H5        1.0  0.03709  0.22505  0.34917  1.0000
  C   C11       1.0  0.14662  0.24769  0.42783  1.0000
  C   C12       1.0  0.11647  0.24815  0.43083  1.0000
  C   C13       1.0  0.10180  0.25071  0.34878  1.0000
  N   N1        1.0  0.10358  0.24849  0.51315  1.0000
  H   H6        1.0  0.11381  0.24702  0.56897  1.0000
  H   H7        1.0  0.08277  0.24829  0.51887  1.0000
  C   C14       1.0  0.10165  0.35467  0.34582  1.0000
  C   C15       1.0  0.11565  0.37157  0.42773  1.0000
  C   C16       1.0  0.14625  0.40174  0.43067  1.0000
  H   H8        1.0  0.10531  0.35968  0.48734  1.0000
  H   H9        1.0  0.14778  0.40444  0.56880  1.0000
  C   C17       1.0  0.02885  0.76622  0.34874  1.0000
  C   C18       1.0  0.04807  0.80162  0.34813  1.0000
  C   C19       1.0  0.08305  0.81965  0.34749  1.0000
  C   C20       1.0  0.10028  0.80200  0.34932  1.0000
  H   H10       1.0  0.03699  0.81559  0.34723  1.0000
  O   O2        1.0  0.13404  0.81890  0.35080  1.0000
  C   C21       1.0  0.11801  0.75212  0.26647  1.0000
  C   C22       1.0  0.14819  0.75226  0.26500  1.0000
  H   H11       1.0  0.11019  0.75734  0.20719  1.0000
  C   C23       1.0  0.14864  0.90011  0.26636  1.0000
  C   C24       1.0  0.11863  0.86992  0.26504  1.0000
  H   H12       1.0  0.11136  0.85715  0.20526  1.0000
  C   C25       1.0  0.08311  0.76711  0.34855  1.0000
  C   C26       1.0  0.04813  0.75010  0.34884  1.0000
  H   H13       1.0  0.14032  0.82220  0.41505  1.0000
  H   H14       1.0  0.03709  0.72505  0.34917  1.0000
  C   C27       1.0  0.14662  0.74769  0.42783  1.0000
  C   C28       1.0  0.11647  0.74815  0.43083  1.0000
  C   C29       1.0  0.10180  0.75071  0.34878  1.0000
  N   N2        1.0  0.10358  0.74849  0.51315  1.0000
  H   H15       1.0  0.11381  0.74702  0.56897  1.0000
  H   H16       1.0  0.08277  0.74829  0.51887  1.0000
  C   C30       1.0  0.10165  0.85467  0.34582  1.0000
  C   C31       1.0  0.11565  0.87157  0.42773  1.0000
  C   C32       1.0  0.14625  0.90174  0.43067  1.0000
  H   H17       1.0  0.10531  0.85968  0.48734  1.0000
  H   H18       1.0  0.14778  0.90445  0.56880  1.0000
  C   C33       1.0  0.25189  0.26621  0.34877  1.0000
  C   C34       1.0  0.21649  0.25003  0.34819  1.0000
  C   C35       1.0  0.19846  0.26698  0.34757  1.0000
  C   C36       1.0  0.21611  0.30187  0.34936  1.0000
  H   H19       1.0  0.20252  0.22498  0.34723  1.0000
  O   O3        1.0  0.19921  0.31873  0.35071  1.0000
  C   C37       1.0  0.26987  0.24829  0.34878  1.0000
  C   C38       1.0  0.25193  0.48934  0.34876  1.0000
  C   C39       1.0  0.26811  0.47012  0.34803  1.0000
  C   C40       1.0  0.25116  0.43514  0.34731  1.0000
  C   C41       1.0  0.21628  0.41790  0.34888  1.0000
  O   O4        1.0  0.19942  0.38414  0.35006  1.0000
  C   C42       1.0  0.26985  0.02524  0.34882  1.0000
  C   C43       1.0  0.27062  0.07944  0.34761  1.0000
  C   C44       1.0  0.25367  0.04446  0.34832  1.0000
  H   H20       1.0  0.22862  0.03338  0.34745  1.0000
  H   H21       1.0  0.16095  0.25775  0.20522  1.0000
  C   C45       1.0  0.26611  0.36952  0.26640  1.0000
  C   C46       1.0  0.26605  0.39959  0.26469  1.0000
  H   H22       1.0  0.26108  0.35650  0.20711  1.0000
  H   H23       1.0  0.26066  0.40686  0.20476  1.0000
  H   H24       1.0  0.16168  0.40791  0.20705  1.0000
  C   C47       1.0  0.25573  0.14502  0.26649  1.0000
  C   C48       1.0  0.25589  0.11500  0.26519  1.0000
  H   H25       1.0  0.26096  0.15806  0.20720  1.0000
  H   H26       1.0  0.26136  0.10771  0.20541  1.0000
  C   C49       1.0  0.25100  0.31958  0.34865  1.0000
  C   C50       1.0  0.26801  0.30161  0.34886  1.0000
  C   C51       1.0  0.25375  0.21290  0.34895  1.0000
  C   C52       1.0  0.27075  0.19492  0.34867  1.0000
  H   H27       1.0  0.19589  0.32172  0.41494  1.0000
  H   H28       1.0  0.22870  0.19888  0.34929  1.0000
  C   C53       1.0  0.19856  0.43507  0.34833  1.0000
  C   C54       1.0  0.21653  0.47006  0.34890  1.0000
  H   H29       1.0  0.19635  0.37778  0.41427  1.0000
  H   H30       1.0  0.20252  0.48109  0.34938  1.0000
  C   C55       1.0  0.16343  0.25055  0.34579  1.0000
  H   H31       1.0  0.15854  0.24925  0.48739  1.0000
  C   C56       1.0  0.26759  0.41655  0.34525  1.0000
  C   C57       1.0  0.27032  0.40256  0.42743  1.0000
  C   C58       1.0  0.26983  0.37193  0.43065  1.0000
  C   C59       1.0  0.26738  0.35465  0.34873  1.0000
  H   H32       1.0  0.26863  0.41285  0.48699  1.0000
  N   N3        1.0  0.26934  0.35869  0.51308  1.0000
  H   H33       1.0  0.27084  0.37045  0.56882  1.0000
  H   H34       1.0  0.26963  0.33813  0.51894  1.0000
  C   C60       1.0  0.16347  0.41637  0.34859  1.0000
  N   N4        1.0  0.15948  0.41466  0.51296  1.0000
  H   H35       1.0  0.18009  0.43548  0.51864  1.0000
  C   C61       1.0  0.25420  0.09804  0.34600  1.0000
  C   C62       1.0  0.25135  0.11205  0.42794  1.0000
  C   C63       1.0  0.25180  0.14266  0.43094  1.0000
  C   C64       1.0  0.25435  0.15982  0.34878  1.0000
  H   H36       1.0  0.25293  0.10172  0.48754  1.0000
  N   N5        1.0  0.25213  0.15591  0.51323  1.0000
  H   H37       1.0  0.25066  0.14421  0.56907  1.0000
  H   H38       1.0  0.25191  0.17650  0.51892  1.0000
  C   C65       1.0  0.25189  0.76621  0.34877  1.0000
  C   C66       1.0  0.21648  0.75003  0.34819  1.0000
  C   C67       1.0  0.19846  0.76698  0.34757  1.0000
  C   C68       1.0  0.21611  0.80187  0.34936  1.0000
  H   H39       1.0  0.20251  0.72498  0.34723  1.0000
  O   O5        1.0  0.19921  0.81873  0.35071  1.0000
  C   C69       1.0  0.26987  0.74829  0.34878  1.0000
  C   C70       1.0  0.25193  0.98934  0.34876  1.0000
  C   C71       1.0  0.26811  0.97012  0.34803  1.0000
  C   C72       1.0  0.25116  0.93514  0.34731  1.0000
  C   C73       1.0  0.21628  0.91790  0.34888  1.0000
  O   O6        1.0  0.19943  0.88414  0.35006  1.0000
  C   C74       1.0  0.26985  0.52524  0.34882  1.0000
  C   C75       1.0  0.27062  0.57943  0.34761  1.0000
  C   C76       1.0  0.25367  0.54446  0.34832  1.0000
  H   H40       1.0  0.22862  0.53338  0.34745  1.0000
  H   H41       1.0  0.16095  0.75775  0.20522  1.0000
  C   C77       1.0  0.26611  0.86952  0.26640  1.0000
  C   C78       1.0  0.26605  0.89959  0.26469  1.0000
  H   H42       1.0  0.26108  0.85650  0.20711  1.0000
  H   H43       1.0  0.26066  0.90686  0.20476  1.0000
  H   H44       1.0  0.16168  0.90790  0.20705  1.0000
  C   C79       1.0  0.25573  0.64502  0.26649  1.0000
  C   C80       1.0  0.25589  0.61500  0.26519  1.0000
  H   H45       1.0  0.26096  0.65806  0.20720  1.0000
  H   H46       1.0  0.26136  0.60771  0.20541  1.0000
  C   C81       1.0  0.25100  0.81958  0.34865  1.0000
  C   C82       1.0  0.26801  0.80161  0.34886  1.0000
  C   C83       1.0  0.25375  0.71289  0.34895  1.0000
  C   C84       1.0  0.27075  0.69492  0.34867  1.0000
  H   H47       1.0  0.19589  0.82172  0.41494  1.0000
  H   H48       1.0  0.22870  0.69888  0.34929  1.0000
  C   C85       1.0  0.19856  0.93507  0.34833  1.0000
  C   C86       1.0  0.21653  0.97005  0.34890  1.0000
  H   H49       1.0  0.19635  0.87778  0.41427  1.0000
  H   H50       1.0  0.20252  0.98109  0.34938  1.0000
  C   C87       1.0  0.16343  0.75055  0.34579  1.0000
  H   H51       1.0  0.15854  0.74925  0.48739  1.0000
  C   C88       1.0  0.26759  0.91655  0.34525  1.0000
  C   C89       1.0  0.27032  0.90256  0.42743  1.0000
  C   C90       1.0  0.26983  0.87192  0.43065  1.0000
  C   C91       1.0  0.26738  0.85466  0.34873  1.0000
  H   H52       1.0  0.26863  0.91285  0.48699  1.0000
  N   N6        1.0  0.26934  0.85869  0.51308  1.0000
  H   H53       1.0  0.27083  0.87045  0.56882  1.0000
  H   H54       1.0  0.26963  0.83813  0.51894  1.0000
  C   C92       1.0  0.16347  0.91637  0.34859  1.0000
  N   N7        1.0  0.15948  0.91466  0.51296  1.0000
  H   H55       1.0  0.18009  0.93547  0.51864  1.0000
  C   C93       1.0  0.25420  0.59804  0.34600  1.0000
  C   C94       1.0  0.25135  0.61205  0.42794  1.0000
  C   C95       1.0  0.25180  0.64266  0.43094  1.0000
  C   C96       1.0  0.25435  0.65982  0.34878  1.0000
  H   H56       1.0  0.25293  0.60172  0.48754  1.0000
  N   N8        1.0  0.25213  0.65590  0.51323  1.0000
  H   H57       1.0  0.25066  0.64421  0.56907  1.0000
  H   H58       1.0  0.25191  0.67650  0.51892  1.0000
  C   C97       1.0  0.30564  0.21263  0.34939  1.0000
  C   C98       1.0  0.32329  0.24752  0.34767  1.0000
  C   C99       1.0  0.30527  0.26447  0.34811  1.0000
  O   O7        1.0  0.32255  0.19577  0.35066  1.0000
  H   H59       1.0  0.31924  0.28952  0.34710  1.0000
  H   H60       1.0  0.29317  0.48120  0.34711  1.0000
  C   C100      1.0  0.30551  0.09667  0.34934  1.0000
  O   O8        1.0  0.32237  0.13043  0.35062  1.0000
  H   H61       1.0  0.32581  0.19271  0.41488  1.0000
  H   H62       1.0  0.29306  0.31562  0.34916  1.0000
  C   C101      1.0  0.30525  0.04452  0.34884  1.0000
  C   C102      1.0  0.32323  0.07950  0.34869  1.0000
  H   H63       1.0  0.32535  0.13676  0.41484  1.0000
  H   H64       1.0  0.31927  0.03348  0.34903  1.0000
  H   H65       1.0  0.34156  0.07928  0.51883  1.0000
  C   C103      1.0  0.30564  0.71263  0.34939  1.0000
  C   C104      1.0  0.32329  0.74752  0.34767  1.0000
  C   C105      1.0  0.30527  0.76447  0.34811  1.0000
  O   O9        1.0  0.32254  0.69577  0.35066  1.0000
  H   H66       1.0  0.31924  0.78952  0.34710  1.0000
  H   H67       1.0  0.29317  0.98120  0.34711  1.0000
  C   C106      1.0  0.30551  0.59667  0.34934  1.0000
  O   O10       1.0  0.32237  0.63043  0.35062  1.0000
  H   H68       1.0  0.32581  0.69271  0.41488  1.0000
  H   H69       1.0  0.29306  0.81562  0.34916  1.0000
  C   C107      1.0  0.30525  0.54452  0.34884  1.0000
  C   C108      1.0  0.32322  0.57950  0.34869  1.0000
  H   H70       1.0  0.32535  0.63676  0.41484  1.0000
  H   H71       1.0  0.31927  0.53348  0.34903  1.0000
  H   H72       1.0  0.34156  0.57928  0.51883  1.0000
  C   C109      1.0  0.49295  0.24823  0.34876  1.0000
  C   C110      1.0  0.42151  0.21244  0.34924  1.0000
  C   C111      1.0  0.43875  0.19479  0.34761  1.0000
  C   C112      1.0  0.47373  0.21283  0.34817  1.0000
  O   O11       1.0  0.38775  0.19553  0.35031  1.0000
  H   H73       1.0  0.48482  0.19886  0.34722  1.0000
  C   C113      1.0  0.40387  0.26257  0.26633  1.0000
  C   C114      1.0  0.37373  0.26250  0.26500  1.0000
  H   H74       1.0  0.41183  0.25757  0.20695  1.0000
  H   H75       1.0  0.36106  0.25720  0.20512  1.0000
  C   C115      1.0  0.37327  0.11431  0.26631  1.0000
  C   C116      1.0  0.40336  0.14442  0.26486  1.0000
  H   H76       1.0  0.36030  0.10634  0.20695  1.0000
  H   H77       1.0  0.41074  0.15711  0.20500  1.0000
  C   C117      1.0  0.47367  0.26434  0.34884  1.0000
  C   C118      1.0  0.43869  0.24733  0.34864  1.0000
  H   H78       1.0  0.38137  0.19223  0.41450  1.0000
  H   H79       1.0  0.48470  0.28940  0.34909  1.0000
  C   C119      1.0  0.35830  0.26393  0.34573  1.0000
  C   C120      1.0  0.37510  0.26656  0.42773  1.0000
  C   C121      1.0  0.40525  0.26609  0.43072  1.0000
  C   C122      1.0  0.41997  0.26370  0.34851  1.0000
  H   H80       1.0  0.36315  0.26482  0.48737  1.0000
  N   N9        1.0  0.41805  0.26558  0.51306  1.0000
  H   H81       1.0  0.40782  0.26706  0.56888  1.0000
  H   H82       1.0  0.43893  0.26592  0.51878  1.0000
  C   C123      1.0  0.42016  0.15976  0.34569  1.0000
  C   C124      1.0  0.40607  0.14306  0.42781  1.0000
  C   C125      1.0  0.37542  0.11293  0.43077  1.0000
  C   C126      1.0  0.35831  0.09822  0.34854  1.0000
  H   H83       1.0  0.41629  0.15504  0.48741  1.0000
  N   N10       1.0  0.36211  0.10014  0.51311  1.0000
  H   H84       1.0  0.37382  0.11037  0.56892  1.0000
  C   C127      1.0  0.49295  0.74823  0.34876  1.0000
  C   C128      1.0  0.42151  0.71244  0.34924  1.0000
  C   C129      1.0  0.43875  0.69480  0.34761  1.0000
  C   C130      1.0  0.47373  0.71283  0.34817  1.0000
  O   O12       1.0  0.38775  0.69553  0.35031  1.0000
  H   H85       1.0  0.48482  0.69886  0.34722  1.0000
  C   C131      1.0  0.40387  0.76257  0.26633  1.0000
  C   C132      1.0  0.37373  0.76250  0.26500  1.0000
  H   H86       1.0  0.41183  0.75757  0.20695  1.0000
  H   H87       1.0  0.36106  0.75720  0.20512  1.0000
  C   C133      1.0  0.37327  0.61430  0.26631  1.0000
  C   C134      1.0  0.40336  0.64442  0.26486  1.0000
  H   H88       1.0  0.36029  0.60634  0.20695  1.0000
  H   H89       1.0  0.41074  0.65711  0.20500  1.0000
  C   C135      1.0  0.47367  0.76435  0.34884  1.0000
  C   C136      1.0  0.43869  0.74733  0.34864  1.0000
  H   H90       1.0  0.38137  0.69223  0.41450  1.0000
  H   H91       1.0  0.48470  0.78939  0.34909  1.0000
  C   C137      1.0  0.35830  0.76393  0.34573  1.0000
  C   C138      1.0  0.37510  0.76656  0.42773  1.0000
  C   C139      1.0  0.40525  0.76609  0.43072  1.0000
  C   C140      1.0  0.41997  0.76370  0.34851  1.0000
  H   H92       1.0  0.36315  0.76482  0.48737  1.0000
  N   N11       1.0  0.41805  0.76558  0.51306  1.0000
  H   H93       1.0  0.40782  0.76706  0.56888  1.0000
  H   H94       1.0  0.43893  0.76592  0.51878  1.0000
  C   C141      1.0  0.42016  0.65976  0.34569  1.0000
  C   C142      1.0  0.40607  0.64306  0.42781  1.0000
  C   C143      1.0  0.37542  0.61293  0.43077  1.0000
  C   C144      1.0  0.35831  0.59822  0.34854  1.0000
  H   H95       1.0  0.41629  0.65504  0.48741  1.0000
  N   N12       1.0  0.36211  0.60014  0.51311  1.0000
  H   H96       1.0  0.37382  0.61037  0.56892  1.0000
  C   C145      1.0  0.52885  0.26622  0.34874  1.0000
  C   C146      1.0  0.54807  0.30162  0.34813  1.0000
  C   C147      1.0  0.58305  0.31965  0.34749  1.0000
  C   C148      1.0  0.60028  0.30200  0.34932  1.0000
  H   H97       1.0  0.53699  0.31559  0.34723  1.0000
  O   O13       1.0  0.63404  0.31889  0.35080  1.0000
  C   C149      1.0  0.99295  0.24823  0.34876  1.0000
  C   C150      1.0  0.92152  0.21244  0.34924  1.0000
  C   C151      1.0  0.93876  0.19479  0.34761  1.0000
  C   C152      1.0  0.97373  0.21283  0.34817  1.0000
  O   O14       1.0  0.88775  0.19553  0.35031  1.0000
  H   H98       1.0  0.98482  0.19886  0.34722  1.0000
  C   C153      1.0  0.75189  0.26621  0.34877  1.0000
  C   C154      1.0  0.71649  0.25003  0.34819  1.0000
  C   C155      1.0  0.69846  0.26698  0.34757  1.0000
  C   C156      1.0  0.71611  0.30187  0.34936  1.0000
  H   H99       1.0  0.70252  0.22498  0.34723  1.0000
  O   O15       1.0  0.69921  0.31873  0.35071  1.0000
  C   C157      1.0  0.76987  0.24829  0.34878  1.0000
  C   C158      1.0  0.80564  0.21263  0.34939  1.0000
  C   C159      1.0  0.82329  0.24752  0.34767  1.0000
  C   C160      1.0  0.80527  0.26447  0.34811  1.0000
  O   O16       1.0  0.82254  0.19577  0.35066  1.0000
  H   H100      1.0  0.81924  0.28952  0.34710  1.0000
  C   C161      1.0  0.75193  0.48934  0.34876  1.0000
  C   C162      1.0  0.76811  0.47012  0.34803  1.0000
  C   C163      1.0  0.75116  0.43514  0.34731  1.0000
  C   C164      1.0  0.71628  0.41790  0.34888  1.0000
  H   H101      1.0  0.79317  0.48120  0.34711  1.0000
  O   O17       1.0  0.69943  0.38414  0.35006  1.0000
  C   C165      1.0  0.76985  0.02524  0.34882  1.0000
  C   C166      1.0  0.80551  0.09667  0.34934  1.0000
  C   C167      1.0  0.77062  0.07944  0.34761  1.0000
  C   C168      1.0  0.75367  0.04446  0.34832  1.0000
  O   O18       1.0  0.82237  0.13043  0.35062  1.0000
  H   H102      1.0  0.72862  0.03338  0.34745  1.0000
  C   C169      1.0  0.61801  0.25212  0.26647  1.0000
  C   C170      1.0  0.64819  0.25226  0.26500  1.0000
  H   H103      1.0  0.61019  0.25734  0.20719  1.0000
  H   H104      1.0  0.66095  0.25775  0.20522  1.0000
  C   C171      1.0  0.76612  0.36952  0.26640  1.0000
  C   C172      1.0  0.76605  0.39959  0.26469  1.0000
  H   H105      1.0  0.76108  0.35650  0.20711  1.0000
  H   H106      1.0  0.76066  0.40686  0.20476  1.0000
  C   C173      1.0  0.64865  0.40011  0.26636  1.0000
  C   C174      1.0  0.61863  0.36992  0.26504  1.0000
  H   H107      1.0  0.66168  0.40791  0.20705  1.0000
  H   H108      1.0  0.61136  0.35715  0.20526  1.0000
  C   C175      1.0  0.90387  0.26257  0.26633  1.0000
  C   C176      1.0  0.87373  0.26250  0.26500  1.0000
  H   H109      1.0  0.91183  0.25757  0.20695  1.0000
  H   H110      1.0  0.86106  0.25720  0.20512  1.0000
  C   C177      1.0  0.75573  0.14502  0.26649  1.0000
  C   C178      1.0  0.75589  0.11500  0.26519  1.0000
  H   H111      1.0  0.76096  0.15806  0.20720  1.0000
  H   H112      1.0  0.76136  0.10771  0.20541  1.0000
  C   C179      1.0  0.87327  0.11431  0.26631  1.0000
  C   C180      1.0  0.90336  0.14442  0.26486  1.0000
  H   H113      1.0  0.86030  0.10634  0.20695  1.0000
  H   H114      1.0  0.91074  0.15711  0.20500  1.0000
  C   C181      1.0  0.58311  0.26711  0.34855  1.0000
  C   C182      1.0  0.54813  0.25010  0.34884  1.0000
  C   C183      1.0  0.97367  0.26434  0.34884  1.0000
  C   C184      1.0  0.93869  0.24733  0.34864  1.0000
  H   H115      1.0  0.64033  0.32220  0.41505  1.0000
  H   H116      1.0  0.88137  0.19223  0.41450  1.0000
  H   H117      1.0  0.53709  0.22505  0.34917  1.0000
  H   H118      1.0  0.98470  0.28940  0.34909  1.0000
  C   C185      1.0  0.75100  0.31958  0.34865  1.0000
  C   C186      1.0  0.76801  0.30161  0.34886  1.0000
  C   C187      1.0  0.75375  0.21290  0.34895  1.0000
  C   C188      1.0  0.77075  0.19492  0.34867  1.0000
  H   H119      1.0  0.69589  0.32172  0.41494  1.0000
  H   H120      1.0  0.82581  0.19271  0.41488  1.0000
  H   H121      1.0  0.79306  0.31562  0.34916  1.0000
  H   H122      1.0  0.72870  0.19888  0.34929  1.0000
  C   C189      1.0  0.69856  0.43507  0.34833  1.0000
  C   C190      1.0  0.71653  0.47006  0.34890  1.0000
  C   C191      1.0  0.80525  0.04452  0.34884  1.0000
  C   C192      1.0  0.82323  0.07950  0.34869  1.0000
  H   H123      1.0  0.69635  0.37778  0.41427  1.0000
  H   H124      1.0  0.82535  0.13676  0.41484  1.0000
  H   H125      1.0  0.70252  0.48109  0.34938  1.0000
  H   H126      1.0  0.81927  0.03348  0.34903  1.0000
  C   C193      1.0  0.66343  0.25055  0.34579  1.0000
  C   C194      1.0  0.64662  0.24769  0.42783  1.0000
  C   C195      1.0  0.61647  0.24815  0.43083  1.0000
  C   C196      1.0  0.60180  0.25071  0.34878  1.0000
  H   H127      1.0  0.65854  0.24925  0.48739  1.0000
  N   N13       1.0  0.60358  0.24849  0.51315  1.0000
  H   H128      1.0  0.61381  0.24702  0.56897  1.0000
  H   H129      1.0  0.58277  0.24829  0.51887  1.0000
  C   C197      1.0  0.76759  0.41655  0.34525  1.0000
  C   C198      1.0  0.77032  0.40256  0.42743  1.0000
  C   C199      1.0  0.76983  0.37193  0.43065  1.0000
  C   C200      1.0  0.76738  0.35465  0.34873  1.0000
  H   H130      1.0  0.76863  0.41285  0.48699  1.0000
  N   N14       1.0  0.76934  0.35869  0.51308  1.0000
  H   H131      1.0  0.77083  0.37045  0.56882  1.0000
  H   H132      1.0  0.76963  0.33813  0.51894  1.0000
  C   C201      1.0  0.60165  0.35467  0.34582  1.0000
  C   C202      1.0  0.61565  0.37157  0.42773  1.0000
  C   C203      1.0  0.64625  0.40174  0.43067  1.0000
  C   C204      1.0  0.66347  0.41637  0.34859  1.0000
  H   H133      1.0  0.60531  0.35968  0.48734  1.0000
  N   N15       1.0  0.65948  0.41466  0.51296  1.0000
  H   H134      1.0  0.64779  0.40444  0.56880  1.0000
  H   H135      1.0  0.68009  0.43548  0.51864  1.0000
  C   C205      1.0  0.85830  0.26393  0.34573  1.0000
  C   C206      1.0  0.87510  0.26656  0.42773  1.0000
  C   C207      1.0  0.90526  0.26609  0.43072  1.0000
  C   C208      1.0  0.91997  0.26370  0.34851  1.0000
  H   H136      1.0  0.86315  0.26482  0.48737  1.0000
  N   N16       1.0  0.91805  0.26558  0.51306  1.0000
  H   H137      1.0  0.90782  0.26706  0.56888  1.0000
  H   H138      1.0  0.93893  0.26592  0.51878  1.0000
  C   C209      1.0  0.75420  0.09804  0.34600  1.0000
  C   C210      1.0  0.75135  0.11205  0.42794  1.0000
  C   C211      1.0  0.75180  0.14266  0.43094  1.0000
  C   C212      1.0  0.75435  0.15982  0.34878  1.0000
  H   H139      1.0  0.75293  0.10172  0.48754  1.0000
  N   N17       1.0  0.75214  0.15591  0.51323  1.0000
  H   H140      1.0  0.75066  0.14421  0.56907  1.0000
  H   H141      1.0  0.75191  0.17650  0.51892  1.0000
  C   C213      1.0  0.92016  0.15976  0.34569  1.0000
  C   C214      1.0  0.90607  0.14306  0.42781  1.0000
  C   C215      1.0  0.87542  0.11293  0.43077  1.0000
  C   C216      1.0  0.85831  0.09822  0.34854  1.0000
  H   H142      1.0  0.91629  0.15504  0.48741  1.0000
  N   N18       1.0  0.86211  0.10014  0.51311  1.0000
  H   H143      1.0  0.87383  0.11037  0.56892  1.0000
  H   H144      1.0  0.84156  0.07928  0.51883  1.0000
  C   C217      1.0  0.52885  0.76622  0.34874  1.0000
  C   C218      1.0  0.54807  0.80162  0.34813  1.0000
  C   C219      1.0  0.58305  0.81965  0.34749  1.0000
  C   C220      1.0  0.60028  0.80200  0.34932  1.0000
  H   H145      1.0  0.53698  0.81559  0.34723  1.0000
  O   O19       1.0  0.63404  0.81890  0.35080  1.0000
  C   C221      1.0  0.99295  0.74823  0.34876  1.0000
  C   C222      1.0  0.92151  0.71244  0.34924  1.0000
  C   C223      1.0  0.93875  0.69480  0.34761  1.0000
  C   C224      1.0  0.97373  0.71283  0.34817  1.0000
  O   O20       1.0  0.88775  0.69553  0.35031  1.0000
  H   H146      1.0  0.98482  0.69886  0.34722  1.0000
  C   C225      1.0  0.75189  0.76621  0.34877  1.0000
  C   C226      1.0  0.71649  0.75003  0.34819  1.0000
  C   C227      1.0  0.69846  0.76698  0.34757  1.0000
  C   C228      1.0  0.71611  0.80187  0.34936  1.0000
  H   H147      1.0  0.70252  0.72498  0.34723  1.0000
  O   O21       1.0  0.69921  0.81873  0.35071  1.0000
  C   C229      1.0  0.76987  0.74829  0.34878  1.0000
  C   C230      1.0  0.80564  0.71263  0.34939  1.0000
  C   C231      1.0  0.82329  0.74752  0.34767  1.0000
  C   C232      1.0  0.80527  0.76447  0.34811  1.0000
  O   O22       1.0  0.82254  0.69577  0.35066  1.0000
  H   H148      1.0  0.81924  0.78952  0.34710  1.0000
  C   C233      1.0  0.75193  0.98934  0.34876  1.0000
  C   C234      1.0  0.76811  0.97012  0.34803  1.0000
  C   C235      1.0  0.75116  0.93514  0.34731  1.0000
  C   C236      1.0  0.71628  0.91790  0.34888  1.0000
  H   H149      1.0  0.79317  0.98120  0.34711  1.0000
  O   O23       1.0  0.69943  0.88414  0.35006  1.0000
  C   C237      1.0  0.76985  0.52524  0.34882  1.0000
  C   C238      1.0  0.80551  0.59667  0.34934  1.0000
  C   C239      1.0  0.77062  0.57943  0.34761  1.0000
  C   C240      1.0  0.75367  0.54446  0.34832  1.0000
  O   O24       1.0  0.82237  0.63043  0.35062  1.0000
  H   H150      1.0  0.72862  0.53338  0.34745  1.0000
  C   C241      1.0  0.61801  0.75212  0.26647  1.0000
  C   C242      1.0  0.64819  0.75226  0.26500  1.0000
  H   H151      1.0  0.61019  0.75734  0.20719  1.0000
  H   H152      1.0  0.66095  0.75775  0.20522  1.0000
  C   C243      1.0  0.76612  0.86952  0.26640  1.0000
  C   C244      1.0  0.76605  0.89959  0.26469  1.0000
  H   H153      1.0  0.76108  0.85650  0.20711  1.0000
  H   H154      1.0  0.76066  0.90686  0.20476  1.0000
  C   C245      1.0  0.64865  0.90011  0.26636  1.0000
  C   C246      1.0  0.61863  0.86992  0.26504  1.0000
  H   H155      1.0  0.66168  0.90790  0.20705  1.0000
  H   H156      1.0  0.61136  0.85715  0.20526  1.0000
  C   C247      1.0  0.90387  0.76257  0.26633  1.0000
  C   C248      1.0  0.87373  0.76250  0.26500  1.0000
  H   H157      1.0  0.91183  0.75757  0.20695  1.0000
  H   H158      1.0  0.86106  0.75720  0.20512  1.0000
  C   C249      1.0  0.75573  0.64502  0.26649  1.0000
  C   C250      1.0  0.75589  0.61500  0.26519  1.0000
  H   H159      1.0  0.76096  0.65806  0.20720  1.0000
  H   H160      1.0  0.76136  0.60771  0.20541  1.0000
  C   C251      1.0  0.87327  0.61430  0.26631  1.0000
  C   C252      1.0  0.90336  0.64442  0.26486  1.0000
  H   H161      1.0  0.86030  0.60634  0.20695  1.0000
  H   H162      1.0  0.91074  0.65711  0.20500  1.0000
  C   C253      1.0  0.58311  0.76711  0.34855  1.0000
  C   C254      1.0  0.54813  0.75010  0.34884  1.0000
  C   C255      1.0  0.97367  0.76435  0.34884  1.0000
  C   C256      1.0  0.93869  0.74733  0.34864  1.0000
  H   H163      1.0  0.64032  0.82220  0.41505  1.0000
  H   H164      1.0  0.88137  0.69223  0.41450  1.0000
  H   H165      1.0  0.53709  0.72505  0.34917  1.0000
  H   H166      1.0  0.98470  0.78939  0.34909  1.0000
  C   C257      1.0  0.75100  0.81958  0.34865  1.0000
  C   C258      1.0  0.76801  0.80161  0.34886  1.0000
  C   C259      1.0  0.75375  0.71289  0.34895  1.0000
  C   C260      1.0  0.77075  0.69492  0.34867  1.0000
  H   H167      1.0  0.69589  0.82172  0.41494  1.0000
  H   H168      1.0  0.82581  0.69271  0.41488  1.0000
  H   H169      1.0  0.79306  0.81562  0.34916  1.0000
  H   H170      1.0  0.72870  0.69888  0.34929  1.0000
  C   C261      1.0  0.69856  0.93507  0.34833  1.0000
  C   C262      1.0  0.71653  0.97005  0.34890  1.0000
  C   C263      1.0  0.80525  0.54452  0.34884  1.0000
  C   C264      1.0  0.82323  0.57950  0.34869  1.0000
  H   H171      1.0  0.69635  0.87778  0.41427  1.0000
  H   H172      1.0  0.82535  0.63676  0.41484  1.0000
  H   H173      1.0  0.70252  0.98109  0.34938  1.0000
  H   H174      1.0  0.81927  0.53348  0.34903  1.0000
  C   C265      1.0  0.66343  0.75055  0.34579  1.0000
  C   C266      1.0  0.64662  0.74769  0.42783  1.0000
  C   C267      1.0  0.61647  0.74815  0.43083  1.0000
  C   C268      1.0  0.60180  0.75071  0.34878  1.0000
  H   H175      1.0  0.65854  0.74925  0.48739  1.0000
  N   N19       1.0  0.60358  0.74849  0.51315  1.0000
  H   H176      1.0  0.61381  0.74702  0.56897  1.0000
  H   H177      1.0  0.58277  0.74829  0.51887  1.0000
  C   C269      1.0  0.76759  0.91655  0.34525  1.0000
  C   C270      1.0  0.77032  0.90256  0.42743  1.0000
  C   C271      1.0  0.76983  0.87192  0.43065  1.0000
  C   C272      1.0  0.76738  0.85466  0.34873  1.0000
  H   H178      1.0  0.76863  0.91285  0.48699  1.0000
  N   N20       1.0  0.76934  0.85869  0.51308  1.0000
  H   H179      1.0  0.77083  0.87045  0.56882  1.0000
  H   H180      1.0  0.76963  0.83813  0.51894  1.0000
  C   C273      1.0  0.60165  0.85467  0.34582  1.0000
  C   C274      1.0  0.61565  0.87157  0.42773  1.0000
  C   C275      1.0  0.64625  0.90174  0.43067  1.0000
  C   C276      1.0  0.66347  0.91637  0.34859  1.0000
  H   H181      1.0  0.60531  0.85968  0.48734  1.0000
  N   N21       1.0  0.65948  0.91466  0.51296  1.0000
  H   H182      1.0  0.64778  0.90445  0.56880  1.0000
  H   H183      1.0  0.68009  0.93547  0.51864  1.0000
  C   C277      1.0  0.85830  0.76393  0.34573  1.0000
  C   C278      1.0  0.87510  0.76656  0.42773  1.0000
  C   C279      1.0  0.90525  0.76609  0.43072  1.0000
  C   C280      1.0  0.91997  0.76370  0.34851  1.0000
  H   H184      1.0  0.86315  0.76482  0.48737  1.0000
  N   N22       1.0  0.91805  0.76558  0.51306  1.0000
  H   H185      1.0  0.90782  0.76706  0.56888  1.0000
  H   H186      1.0  0.93893  0.76592  0.51878  1.0000
  C   C281      1.0  0.75420  0.59804  0.34600  1.0000
  C   C282      1.0  0.75135  0.61205  0.42794  1.0000
  C   C283      1.0  0.75180  0.64266  0.43094  1.0000
  C   C284      1.0  0.75435  0.65982  0.34878  1.0000
  H   H187      1.0  0.75293  0.60172  0.48754  1.0000
  N   N23       1.0  0.75213  0.65590  0.51323  1.0000
  H   H188      1.0  0.75066  0.64421  0.56907  1.0000
  H   H189      1.0  0.75191  0.67650  0.51892  1.0000
  C   C285      1.0  0.92016  0.65976  0.34569  1.0000
  C   C286      1.0  0.90607  0.64306  0.42781  1.0000
  C   C287      1.0  0.87542  0.61293  0.43077  1.0000
  C   C288      1.0  0.85831  0.59822  0.34854  1.0000
  H   H190      1.0  0.91629  0.65504  0.48741  1.0000
  N   N24       1.0  0.86211  0.60014  0.51311  1.0000
  H   H191      1.0  0.87382  0.61037  0.56892  1.0000
  H   H192      1.0  0.84156  0.57928  0.51883  1.0000
