data_image0
_chemical_formula_structural       C3H2NCHNCHC3NH2CNCHCNCOCH3C3H2NCHNCHC3NH2CNCHCNCOCH3C3H2CHC2HNCHC3NH2C3NH2COCH2C2NCOCH3C3NC2H3C3H2CHC2HNCHC3NH2C3NH2COCH2C2NCOCH3C3NC2H3C3H2C3H2NCHC2NCH2C3NH2CH2OC4H2C3H2NCHC2NCH2C3NH2CH2OC4H2NCHNCHC3NH2CNCOCHCNCOCH3C3H2NCHNCHC3NH2CNCOCHCNCOCH3C3HC3H3C3HC3H3C3HC3H3NCHNCHNCHNCHNCHNCHC3NC3NH4C3NC3NH4C3NC3NH4C2NCOCH3C2NCOCH3C2NCOCH3C2NCOCH3C2NCOCH3C2NCOCH3C3HC3H3C3HC3H3C3HC3H3NCHNCHNCHNCHNCHNCHC3NC3NH4C3NC3NH4C3NC3NH4C2NCOCH3C2NCOCH3C2NCOCH3C2NCOCH3C2NCOCH3C2NCOCH3
_chemical_formula_sum              "C264 H192 N72 O24"
_cell_length_a       46.282
_cell_length_b       46.2819
_cell_length_c       14.7753
_cell_angle_alpha    90
_cell_angle_beta     90
_cell_angle_gamma    120

_space_group_name_H-M_alt    "P 1"
_space_group_IT_number       1

loop_
  _space_group_symop_operation_xyz
  'x, y, z'

loop_
  _atom_site_type_symbol
  _atom_site_label
  _atom_site_symmetry_multiplicity
  _atom_site_fract_x
  _atom_site_fract_y
  _atom_site_fract_z
  _atom_site_occupancy
  C   C1        1.0  0.03166  0.26698  0.36186  1.0000
  C   C2        1.0  0.08656  0.32063  0.37530  1.0000
  C   C3        1.0  0.05143  0.30258  0.36416  1.0000
  H   H1        1.0  0.04036  0.31672  0.35729  1.0000
  H   H2        1.0  0.15165  0.34378  0.37290  1.0000
  N   N1        1.0  0.14162  0.24097  0.28452  1.0000
  C   C4        1.0  0.11132  0.23899  0.29325  1.0000
  H   H3        1.0  0.09862  0.23781  0.23548  1.0000
  N   N2        1.0  0.11245  0.37041  0.29040  1.0000
  C   C5        1.0  0.13944  0.40096  0.27320  1.0000
  H   H4        1.0  0.14563  0.40804  0.20728  1.0000
  C   C6        1.0  0.05086  0.25047  0.36449  1.0000
  C   C7        1.0  0.08614  0.26706  0.37542  1.0000
  C   C8        1.0  0.10435  0.30276  0.37878  1.0000
  N   N3        1.0  0.13859  0.31988  0.37670  1.0000
  H   H5        1.0  0.15157  0.30910  0.36902  1.0000
  H   H6        1.0  0.03910  0.22514  0.35992  1.0000
  C   C9        1.0  0.10333  0.24867  0.37618  1.0000
  N   N4        1.0  0.12560  0.25499  0.44447  1.0000
  C   C10       1.0  0.15360  0.25233  0.43932  1.0000
  H   H7        1.0  0.14445  0.22938  0.60663  1.0000
  C   C11       1.0  0.10368  0.35613  0.37400  1.0000
  N   N5        1.0  0.15446  0.40270  0.42611  1.0000
  C   C12       1.0  0.12498  0.37485  0.44648  1.0000
  O   O1        1.0  0.12238  0.36100  0.52990  1.0000
  C   C13       1.0  0.10119  0.36647  0.59000  1.0000
  H   H8        1.0  0.10042  0.35477  0.65468  1.0000
  H   H9        1.0  0.07569  0.35515  0.56402  1.0000
  H   H10       1.0  0.11094  0.39308  0.60191  1.0000
  C   C14       1.0  0.03166  0.76698  0.36186  1.0000
  C   C15       1.0  0.08656  0.82063  0.37530  1.0000
  C   C16       1.0  0.05143  0.80258  0.36416  1.0000
  H   H11       1.0  0.04036  0.81671  0.35729  1.0000
  H   H12       1.0  0.15165  0.84378  0.37290  1.0000
  N   N6        1.0  0.14162  0.74097  0.28452  1.0000
  C   C17       1.0  0.11132  0.73899  0.29325  1.0000
  H   H13       1.0  0.09862  0.73781  0.23548  1.0000
  N   N7        1.0  0.11246  0.87042  0.29040  1.0000
  C   C18       1.0  0.13944  0.90096  0.27320  1.0000
  H   H14       1.0  0.14563  0.90804  0.20728  1.0000
  C   C19       1.0  0.05086  0.75047  0.36449  1.0000
  C   C20       1.0  0.08614  0.76706  0.37542  1.0000
  C   C21       1.0  0.10435  0.80276  0.37878  1.0000
  N   N8        1.0  0.13859  0.81988  0.37670  1.0000
  H   H15       1.0  0.15157  0.80910  0.36902  1.0000
  H   H16       1.0  0.03910  0.72514  0.35992  1.0000
  C   C22       1.0  0.10333  0.74867  0.37618  1.0000
  N   N9        1.0  0.12561  0.75499  0.44447  1.0000
  C   C23       1.0  0.15360  0.75233  0.43932  1.0000
  H   H17       1.0  0.14445  0.72938  0.60663  1.0000
  C   C24       1.0  0.10368  0.85613  0.37400  1.0000
  N   N10       1.0  0.15446  0.90270  0.42611  1.0000
  C   C25       1.0  0.12498  0.87485  0.44648  1.0000
  O   O2        1.0  0.12238  0.86100  0.52990  1.0000
  C   C26       1.0  0.10119  0.86647  0.59000  1.0000
  H   H18       1.0  0.10042  0.85477  0.65468  1.0000
  H   H19       1.0  0.07570  0.85515  0.56402  1.0000
  H   H20       1.0  0.11094  0.89308  0.60191  1.0000
  C   C27       1.0  0.25366  0.26524  0.35470  1.0000
  C   C28       1.0  0.19854  0.26307  0.33275  1.0000
  C   C29       1.0  0.21790  0.24839  0.35842  1.0000
  H   H21       1.0  0.20471  0.22420  0.37920  1.0000
  H   H22       1.0  0.17801  0.29872  0.23993  1.0000
  C   C30       1.0  0.25386  0.04425  0.35756  1.0000
  H   H23       1.0  0.22939  0.03329  0.37532  1.0000
  C   C31       1.0  0.25223  0.48894  0.35101  1.0000
  C   C32       1.0  0.25053  0.43446  0.32641  1.0000
  H   H24       1.0  0.21444  0.38064  0.23549  1.0000
  N   N11       1.0  0.24663  0.11280  0.28710  1.0000
  C   C33       1.0  0.24505  0.14127  0.29660  1.0000
  H   H25       1.0  0.24358  0.15281  0.23923  1.0000
  C   C34       1.0  0.25683  0.21245  0.36686  1.0000
  C   C35       1.0  0.25073  0.31720  0.32600  1.0000
  C   C36       1.0  0.21594  0.29734  0.30742  1.0000
  N   N12       1.0  0.20042  0.31168  0.26305  1.0000
  H   H26       1.0  0.21386  0.33255  0.23172  1.0000
  H   H27       1.0  0.23159  0.19827  0.36070  1.0000
  C   C37       1.0  0.21651  0.46979  0.35113  1.0000
  C   C38       1.0  0.19801  0.43578  0.32568  1.0000
  C   C39       1.0  0.21592  0.41906  0.30472  1.0000
  N   N13       1.0  0.20088  0.38866  0.26311  1.0000
  H   H28       1.0  0.17840  0.37837  0.23997  1.0000
  H   H29       1.0  0.20266  0.48075  0.36457  1.0000
  C   C40       1.0  0.16379  0.24723  0.35310  1.0000
  O   O3        1.0  0.17535  0.26477  0.51041  1.0000
  C   C41       1.0  0.16936  0.23983  0.57717  1.0000
  H   H30       1.0  0.18759  0.25166  0.63124  1.0000
  H   H31       1.0  0.17247  0.21975  0.54873  1.0000
  C   C42       1.0  0.26422  0.41361  0.34704  1.0000
  C   C43       1.0  0.26403  0.35182  0.34400  1.0000
  N   N14       1.0  0.24768  0.35952  0.40769  1.0000
  C   C44       1.0  0.24858  0.38918  0.41593  1.0000
  O   O4        1.0  0.22807  0.39106  0.47950  1.0000
  C   C45       1.0  0.24554  0.40800  0.56043  1.0000
  H   H32       1.0  0.22751  0.40830  0.60732  1.0000
  H   H33       1.0  0.26460  0.43383  0.54648  1.0000
  H   H34       1.0  0.25704  0.39505  0.59317  1.0000
  C   C46       1.0  0.16314  0.41718  0.34288  1.0000
  C   C47       1.0  0.25318  0.09706  0.35540  1.0000
  C   C48       1.0  0.25575  0.15900  0.37921  1.0000
  N   N15       1.0  0.26225  0.14316  0.44725  1.0000
  C   C49       1.0  0.25904  0.11234  0.44174  1.0000
  C   C50       1.0  0.24686  0.08334  0.57829  1.0000
  H   H35       1.0  0.25883  0.07680  0.63164  1.0000
  H   H36       1.0  0.22691  0.06021  0.54913  1.0000
  H   H37       1.0  0.23619  0.09743  0.60889  1.0000
  C   C51       1.0  0.25366  0.76524  0.35470  1.0000
  C   C52       1.0  0.19854  0.76307  0.33275  1.0000
  C   C53       1.0  0.21790  0.74839  0.35842  1.0000
  H   H38       1.0  0.20471  0.72420  0.37920  1.0000
  H   H39       1.0  0.17801  0.79872  0.23993  1.0000
  C   C54       1.0  0.25386  0.54425  0.35756  1.0000
  H   H40       1.0  0.22939  0.53329  0.37532  1.0000
  C   C55       1.0  0.25223  0.98894  0.35101  1.0000
  C   C56       1.0  0.25054  0.93446  0.32641  1.0000
  H   H41       1.0  0.21444  0.88065  0.23549  1.0000
  N   N16       1.0  0.24663  0.61280  0.28710  1.0000
  C   C57       1.0  0.24505  0.64127  0.29660  1.0000
  H   H42       1.0  0.24358  0.65281  0.23923  1.0000
  C   C58       1.0  0.25683  0.71245  0.36686  1.0000
  C   C59       1.0  0.25073  0.81720  0.32600  1.0000
  C   C60       1.0  0.21594  0.79734  0.30742  1.0000
  N   N17       1.0  0.20042  0.81168  0.26305  1.0000
  H   H43       1.0  0.21386  0.83255  0.23172  1.0000
  H   H44       1.0  0.23159  0.69827  0.36070  1.0000
  C   C61       1.0  0.21652  0.96979  0.35113  1.0000
  C   C62       1.0  0.19801  0.93578  0.32568  1.0000
  C   C63       1.0  0.21592  0.91906  0.30472  1.0000
  N   N18       1.0  0.20088  0.88867  0.26311  1.0000
  H   H45       1.0  0.17840  0.87837  0.23997  1.0000
  H   H46       1.0  0.20266  0.98075  0.36457  1.0000
  C   C64       1.0  0.16378  0.74723  0.35310  1.0000
  O   O5        1.0  0.17535  0.76477  0.51041  1.0000
  C   C65       1.0  0.16936  0.73983  0.57717  1.0000
  H   H47       1.0  0.18760  0.75166  0.63124  1.0000
  H   H48       1.0  0.17247  0.71975  0.54873  1.0000
  C   C66       1.0  0.26422  0.91361  0.34704  1.0000
  C   C67       1.0  0.26403  0.85182  0.34400  1.0000
  N   N19       1.0  0.24768  0.85952  0.40769  1.0000
  C   C68       1.0  0.24858  0.88918  0.41593  1.0000
  O   O6        1.0  0.22807  0.89106  0.47950  1.0000
  C   C69       1.0  0.24554  0.90800  0.56043  1.0000
  H   H49       1.0  0.22751  0.90830  0.60732  1.0000
  H   H50       1.0  0.26460  0.93383  0.54648  1.0000
  H   H51       1.0  0.25704  0.89505  0.59317  1.0000
  C   C70       1.0  0.16314  0.91718  0.34288  1.0000
  C   C71       1.0  0.25318  0.59707  0.35540  1.0000
  C   C72       1.0  0.25575  0.65900  0.37921  1.0000
  N   N20       1.0  0.26225  0.64316  0.44725  1.0000
  C   C73       1.0  0.25904  0.61234  0.44174  1.0000
  C   C74       1.0  0.24686  0.58334  0.57829  1.0000
  H   H52       1.0  0.25884  0.57680  0.63164  1.0000
  H   H53       1.0  0.22691  0.56021  0.54913  1.0000
  H   H54       1.0  0.23619  0.59743  0.60889  1.0000
  C   C75       1.0  0.27259  0.24803  0.36394  1.0000
  C   C76       1.0  0.30831  0.26463  0.36585  1.0000
  C   C77       1.0  0.32707  0.24812  0.37605  1.0000
  H   H55       1.0  0.32184  0.28996  0.36104  1.0000
  H   H56       1.0  0.35080  0.20652  0.36956  1.0000
  C   C78       1.0  0.27039  0.02515  0.35225  1.0000
  C   C79       1.0  0.26905  0.07840  0.33395  1.0000
  C   C80       1.0  0.26804  0.46914  0.34620  1.0000
  H   H57       1.0  0.29295  0.47970  0.35883  1.0000
  H   H58       1.0  0.30515  0.13515  0.24515  1.0000
  N   N21       1.0  0.27935  0.40545  0.28032  1.0000
  C   C81       1.0  0.28161  0.37705  0.27869  1.0000
  H   H59       1.0  0.29117  0.37207  0.22234  1.0000
  C   C82       1.0  0.30967  0.21244  0.38030  1.0000
  C   C83       1.0  0.27399  0.19449  0.37831  1.0000
  N   N22       1.0  0.32702  0.19556  0.37737  1.0000
  C   C84       1.0  0.26885  0.30073  0.34641  1.0000
  H   H60       1.0  0.31637  0.17172  0.37291  1.0000
  H   H61       1.0  0.29374  0.31570  0.35776  1.0000
  C   C85       1.0  0.30348  0.09533  0.31070  1.0000
  C   C86       1.0  0.32297  0.07995  0.32846  1.0000
  C   C87       1.0  0.30598  0.04502  0.34495  1.0000
  N   N23       1.0  0.31803  0.12556  0.26820  1.0000
  H   H62       1.0  0.33944  0.13389  0.23929  1.0000
  H   H63       1.0  0.32047  0.03434  0.35266  1.0000
  C   C88       1.0  0.36265  0.26663  0.37481  1.0000
  H   H64       1.0  0.36027  0.26716  0.65480  1.0000
  H   H65       1.0  0.36071  0.29239  0.56441  1.0000
  O   O7        1.0  0.27171  0.10286  0.51192  1.0000
  C   C89       1.0  0.35773  0.10093  0.34554  1.0000
  C   C90       1.0  0.27259  0.74803  0.36394  1.0000
  C   C91       1.0  0.30831  0.76463  0.36585  1.0000
  C   C92       1.0  0.32707  0.74812  0.37605  1.0000
  H   H66       1.0  0.32184  0.78996  0.36104  1.0000
  H   H67       1.0  0.35080  0.70653  0.36956  1.0000
  C   C93       1.0  0.27039  0.52515  0.35225  1.0000
  C   C94       1.0  0.26905  0.57840  0.33395  1.0000
  C   C95       1.0  0.26804  0.96914  0.34620  1.0000
  H   H68       1.0  0.29294  0.97970  0.35883  1.0000
  H   H69       1.0  0.30515  0.63515  0.24515  1.0000
  N   N24       1.0  0.27935  0.90545  0.28032  1.0000
  C   C96       1.0  0.28161  0.87705  0.27869  1.0000
  H   H70       1.0  0.29117  0.87207  0.22234  1.0000
  C   C97       1.0  0.30967  0.71244  0.38030  1.0000
  C   C98       1.0  0.27399  0.69449  0.37831  1.0000
  N   N25       1.0  0.32702  0.69556  0.37737  1.0000
  C   C99       1.0  0.26885  0.80074  0.34641  1.0000
  H   H71       1.0  0.31638  0.67172  0.37291  1.0000
  H   H72       1.0  0.29374  0.81570  0.35776  1.0000
  C   C100      1.0  0.30348  0.59533  0.31070  1.0000
  C   C101      1.0  0.32297  0.57995  0.32846  1.0000
  C   C102      1.0  0.30598  0.54502  0.34495  1.0000
  N   N26       1.0  0.31803  0.62556  0.26820  1.0000
  H   H73       1.0  0.33944  0.63389  0.23929  1.0000
  H   H74       1.0  0.32047  0.53434  0.35266  1.0000
  C   C103      1.0  0.36265  0.76663  0.37481  1.0000
  H   H75       1.0  0.36027  0.76716  0.65480  1.0000
  H   H76       1.0  0.36070  0.79238  0.56441  1.0000
  O   O8        1.0  0.27171  0.60286  0.51192  1.0000
  C   C104      1.0  0.35774  0.60093  0.34554  1.0000
  C   C105      1.0  0.49552  0.24961  0.35208  1.0000
  C   C106      1.0  0.47521  0.21404  0.34635  1.0000
  C   C107      1.0  0.44073  0.19731  0.32428  1.0000
  H   H77       1.0  0.48512  0.19924  0.36056  1.0000
  H   H78       1.0  0.38821  0.18084  0.22970  1.0000
  N   N27       1.0  0.37730  0.27240  0.29162  1.0000
  C   C108      1.0  0.40770  0.27551  0.27454  1.0000
  H   H79       1.0  0.41509  0.27704  0.20868  1.0000
  N   N28       1.0  0.41093  0.13920  0.27920  1.0000
  C   C109      1.0  0.38259  0.10845  0.27910  1.0000
  H   H80       1.0  0.37731  0.09372  0.22304  1.0000
  C   C110      1.0  0.42582  0.21699  0.30270  1.0000
  C   C111      1.0  0.44258  0.25147  0.32621  1.0000
  C   C112      1.0  0.47653  0.26640  0.35285  1.0000
  N   N29       1.0  0.39571  0.20198  0.25949  1.0000
  H   H81       1.0  0.38595  0.21465  0.23627  1.0000
  H   H82       1.0  0.48746  0.29078  0.37182  1.0000
  C   C113      1.0  0.42388  0.26772  0.34369  1.0000
  N   N30       1.0  0.40909  0.26168  0.42662  1.0000
  C   C114      1.0  0.38127  0.26346  0.44691  1.0000
  O   O9        1.0  0.36717  0.25195  0.53001  1.0000
  C   C115      1.0  0.37215  0.27835  0.59049  1.0000
  H   H83       1.0  0.39867  0.29536  0.60312  1.0000
  C   C116      1.0  0.41941  0.16284  0.34514  1.0000
  N   N31       1.0  0.36579  0.12535  0.40838  1.0000
  C   C117      1.0  0.39537  0.15429  0.41494  1.0000
  O   O10       1.0  0.39754  0.17692  0.47814  1.0000
  C   C118      1.0  0.41397  0.17595  0.55965  1.0000
  H   H84       1.0  0.41454  0.19448  0.60628  1.0000
  H   H85       1.0  0.43969  0.18218  0.54646  1.0000
  H   H86       1.0  0.40048  0.15152  0.59235  1.0000
  C   C119      1.0  0.49552  0.74961  0.35208  1.0000
  C   C120      1.0  0.47521  0.71404  0.34635  1.0000
  C   C121      1.0  0.44073  0.69731  0.32428  1.0000
  H   H87       1.0  0.48512  0.69924  0.36056  1.0000
  H   H88       1.0  0.38821  0.68084  0.22970  1.0000
  N   N32       1.0  0.37730  0.77240  0.29162  1.0000
  C   C122      1.0  0.40770  0.77551  0.27454  1.0000
  H   H89       1.0  0.41510  0.77704  0.20868  1.0000
  N   N33       1.0  0.41093  0.63920  0.27920  1.0000
  C   C123      1.0  0.38259  0.60845  0.27910  1.0000
  H   H90       1.0  0.37731  0.59372  0.22304  1.0000
  C   C124      1.0  0.42582  0.71698  0.30270  1.0000
  C   C125      1.0  0.44258  0.75147  0.32621  1.0000
  C   C126      1.0  0.47653  0.76640  0.35285  1.0000
  N   N34       1.0  0.39571  0.70198  0.25949  1.0000
  H   H91       1.0  0.38595  0.71465  0.23627  1.0000
  H   H92       1.0  0.48746  0.79078  0.37182  1.0000
  C   C127      1.0  0.42388  0.76772  0.34369  1.0000
  N   N35       1.0  0.40909  0.76168  0.42662  1.0000
  C   C128      1.0  0.38127  0.76346  0.44691  1.0000
  O   O11       1.0  0.36717  0.75195  0.53001  1.0000
  C   C129      1.0  0.37215  0.77835  0.59049  1.0000
  H   H93       1.0  0.39867  0.79536  0.60312  1.0000
  C   C130      1.0  0.41941  0.66284  0.34514  1.0000
  N   N36       1.0  0.36579  0.62535  0.40838  1.0000
  C   C131      1.0  0.39537  0.65429  0.41494  1.0000
  O   O12       1.0  0.39754  0.67692  0.47814  1.0000
  C   C132      1.0  0.41397  0.67595  0.55965  1.0000
  H   H94       1.0  0.41454  0.69449  0.60627  1.0000
  H   H95       1.0  0.43969  0.68218  0.54646  1.0000
  H   H96       1.0  0.40048  0.65152  0.59235  1.0000
  C   C133      1.0  0.99552  0.24961  0.35208  1.0000
  C   C134      1.0  0.97521  0.21404  0.34635  1.0000
  C   C135      1.0  0.94073  0.19731  0.32428  1.0000
  H   H97       1.0  0.98512  0.19924  0.36056  1.0000
  C   C136      1.0  0.53165  0.26698  0.36186  1.0000
  C   C137      1.0  0.58656  0.32063  0.37530  1.0000
  C   C138      1.0  0.55143  0.30258  0.36416  1.0000
  H   H98       1.0  0.54036  0.31672  0.35729  1.0000
  H   H99       1.0  0.65165  0.34378  0.37290  1.0000
  H   H100      1.0  0.88821  0.18084  0.22970  1.0000
  C   C139      1.0  0.77259  0.24803  0.36394  1.0000
  C   C140      1.0  0.80831  0.26463  0.36585  1.0000
  C   C141      1.0  0.82707  0.24812  0.37605  1.0000
  H   H101      1.0  0.82184  0.28996  0.36104  1.0000
  C   C142      1.0  0.75366  0.26524  0.35470  1.0000
  C   C143      1.0  0.69853  0.26307  0.33275  1.0000
  C   C144      1.0  0.71789  0.24839  0.35842  1.0000
  H   H102      1.0  0.70471  0.22420  0.37920  1.0000
  H   H103      1.0  0.67801  0.29872  0.23993  1.0000
  H   H104      1.0  0.85080  0.20652  0.36956  1.0000
  C   C145      1.0  0.77039  0.02515  0.35225  1.0000
  C   C146      1.0  0.75386  0.04425  0.35756  1.0000
  C   C147      1.0  0.76905  0.07840  0.33395  1.0000
  H   H105      1.0  0.72939  0.03329  0.37532  1.0000
  C   C148      1.0  0.75222  0.48894  0.35101  1.0000
  C   C149      1.0  0.75053  0.43446  0.32641  1.0000
  C   C150      1.0  0.76804  0.46914  0.34620  1.0000
  H   H106      1.0  0.79295  0.47970  0.35883  1.0000
  H   H107      1.0  0.71444  0.38064  0.23549  1.0000
  H   H108      1.0  0.80515  0.13515  0.24515  1.0000
  N   N37       1.0  0.64162  0.24097  0.28452  1.0000
  C   C151      1.0  0.61131  0.23899  0.29325  1.0000
  H   H109      1.0  0.59862  0.23781  0.23548  1.0000
  N   N38       1.0  0.77935  0.40545  0.28032  1.0000
  C   C152      1.0  0.78161  0.37705  0.27869  1.0000
  H   H110      1.0  0.79117  0.37207  0.22234  1.0000
  N   N39       1.0  0.61245  0.37041  0.29040  1.0000
  C   C153      1.0  0.63944  0.40096  0.27320  1.0000
  H   H111      1.0  0.64563  0.40804  0.20728  1.0000
  N   N40       1.0  0.87730  0.27240  0.29162  1.0000
  C   C154      1.0  0.90770  0.27551  0.27454  1.0000
  H   H112      1.0  0.91509  0.27704  0.20868  1.0000
  N   N41       1.0  0.74663  0.11280  0.28710  1.0000
  C   C155      1.0  0.74505  0.14127  0.29660  1.0000
  H   H113      1.0  0.74358  0.15281  0.23923  1.0000
  N   N42       1.0  0.91093  0.13920  0.27920  1.0000
  C   C156      1.0  0.88259  0.10845  0.27910  1.0000
  H   H114      1.0  0.87731  0.09372  0.22304  1.0000
  C   C157      1.0  0.92582  0.21699  0.30270  1.0000
  C   C158      1.0  0.94258  0.25147  0.32621  1.0000
  C   C159      1.0  0.97653  0.26640  0.35285  1.0000
  N   N43       1.0  0.89571  0.20198  0.25949  1.0000
  C   C160      1.0  0.55086  0.25047  0.36449  1.0000
  C   C161      1.0  0.58614  0.26706  0.37542  1.0000
  C   C162      1.0  0.60434  0.30276  0.37878  1.0000
  N   N44       1.0  0.63859  0.31988  0.37670  1.0000
  H   H115      1.0  0.65157  0.30910  0.36902  1.0000
  H   H116      1.0  0.88595  0.21465  0.23627  1.0000
  H   H117      1.0  0.98746  0.29078  0.37182  1.0000
  H   H118      1.0  0.53910  0.22514  0.35992  1.0000
  C   C163      1.0  0.80967  0.21244  0.38030  1.0000
  C   C164      1.0  0.77399  0.19449  0.37831  1.0000
  C   C165      1.0  0.75683  0.21245  0.36686  1.0000
  N   N45       1.0  0.82702  0.19556  0.37737  1.0000
  C   C166      1.0  0.76885  0.30073  0.34641  1.0000
  C   C167      1.0  0.75073  0.31720  0.32600  1.0000
  C   C168      1.0  0.71594  0.29734  0.30742  1.0000
  N   N46       1.0  0.70041  0.31168  0.26305  1.0000
  H   H119      1.0  0.71386  0.33255  0.23172  1.0000
  H   H120      1.0  0.81637  0.17172  0.37291  1.0000
  H   H121      1.0  0.73159  0.19827  0.36070  1.0000
  H   H122      1.0  0.79374  0.31570  0.35776  1.0000
  C   C169      1.0  0.80348  0.09533  0.31070  1.0000
  C   C170      1.0  0.82297  0.07995  0.32846  1.0000
  C   C171      1.0  0.80598  0.04502  0.34495  1.0000
  N   N47       1.0  0.81803  0.12556  0.26820  1.0000
  C   C172      1.0  0.71652  0.46979  0.35113  1.0000
  C   C173      1.0  0.69801  0.43578  0.32568  1.0000
  C   C174      1.0  0.71592  0.41906  0.30472  1.0000
  N   N48       1.0  0.70088  0.38866  0.26311  1.0000
  H   H123      1.0  0.67840  0.37837  0.23997  1.0000
  H   H124      1.0  0.83944  0.13389  0.23929  1.0000
  H   H125      1.0  0.82047  0.03434  0.35266  1.0000
  H   H126      1.0  0.70266  0.48075  0.36457  1.0000
  C   C175      1.0  0.66379  0.24723  0.35310  1.0000
  C   C176      1.0  0.60333  0.24867  0.37618  1.0000
  N   N49       1.0  0.62560  0.25499  0.44447  1.0000
  C   C177      1.0  0.65360  0.25233  0.43932  1.0000
  O   O13       1.0  0.67535  0.26477  0.51041  1.0000
  C   C178      1.0  0.66936  0.23983  0.57717  1.0000
  H   H127      1.0  0.68759  0.25166  0.63124  1.0000
  H   H128      1.0  0.67247  0.21975  0.54873  1.0000
  H   H129      1.0  0.64445  0.22938  0.60663  1.0000
  C   C179      1.0  0.76422  0.41361  0.34704  1.0000
  C   C180      1.0  0.76403  0.35182  0.34400  1.0000
  N   N50       1.0  0.74768  0.35952  0.40769  1.0000
  C   C181      1.0  0.74858  0.38918  0.41593  1.0000
  O   O14       1.0  0.72807  0.39106  0.47950  1.0000
  C   C182      1.0  0.74554  0.40800  0.56043  1.0000
  H   H130      1.0  0.72751  0.40830  0.60732  1.0000
  H   H131      1.0  0.76460  0.43383  0.54648  1.0000
  H   H132      1.0  0.75704  0.39505  0.59317  1.0000
  C   C183      1.0  0.60368  0.35613  0.37400  1.0000
  C   C184      1.0  0.66314  0.41718  0.34288  1.0000
  N   N51       1.0  0.65446  0.40270  0.42611  1.0000
  C   C185      1.0  0.62498  0.37485  0.44648  1.0000
  O   O15       1.0  0.62238  0.36100  0.52990  1.0000
  C   C186      1.0  0.60118  0.36647  0.59000  1.0000
  H   H133      1.0  0.60042  0.35477  0.65468  1.0000
  H   H134      1.0  0.57569  0.35515  0.56402  1.0000
  H   H135      1.0  0.61094  0.39308  0.60191  1.0000
  C   C187      1.0  0.86265  0.26663  0.37481  1.0000
  C   C188      1.0  0.92388  0.26772  0.34369  1.0000
  N   N52       1.0  0.90909  0.26168  0.42662  1.0000
  C   C189      1.0  0.88127  0.26346  0.44691  1.0000
  O   O16       1.0  0.86717  0.25195  0.53001  1.0000
  C   C190      1.0  0.87215  0.27835  0.59049  1.0000
  H   H136      1.0  0.86027  0.26716  0.65480  1.0000
  H   H137      1.0  0.86071  0.29239  0.56441  1.0000
  H   H138      1.0  0.89867  0.29536  0.60312  1.0000
  C   C191      1.0  0.75318  0.09706  0.35540  1.0000
  C   C192      1.0  0.75574  0.15900  0.37921  1.0000
  N   N53       1.0  0.76225  0.14316  0.44725  1.0000
  C   C193      1.0  0.75904  0.11234  0.44174  1.0000
  O   O17       1.0  0.77171  0.10286  0.51192  1.0000
  C   C194      1.0  0.74686  0.08334  0.57829  1.0000
  H   H139      1.0  0.75883  0.07680  0.63164  1.0000
  H   H140      1.0  0.72691  0.06021  0.54913  1.0000
  H   H141      1.0  0.73619  0.09743  0.60889  1.0000
  C   C195      1.0  0.91941  0.16284  0.34514  1.0000
  C   C196      1.0  0.85773  0.10093  0.34554  1.0000
  N   N54       1.0  0.86579  0.12535  0.40838  1.0000
  C   C197      1.0  0.89537  0.15429  0.41494  1.0000
  O   O18       1.0  0.89754  0.17692  0.47814  1.0000
  C   C198      1.0  0.91397  0.17595  0.55965  1.0000
  H   H142      1.0  0.91454  0.19448  0.60628  1.0000
  H   H143      1.0  0.93969  0.18218  0.54646  1.0000
  H   H144      1.0  0.90048  0.15152  0.59235  1.0000
  C   C199      1.0  0.99552  0.74961  0.35208  1.0000
  C   C200      1.0  0.97521  0.71404  0.34635  1.0000
  C   C201      1.0  0.94073  0.69731  0.32428  1.0000
  H   H145      1.0  0.98512  0.69924  0.36056  1.0000
  C   C202      1.0  0.53165  0.76698  0.36186  1.0000
  C   C203      1.0  0.58656  0.82063  0.37530  1.0000
  C   C204      1.0  0.55143  0.80258  0.36416  1.0000
  H   H146      1.0  0.54036  0.81671  0.35729  1.0000
  H   H147      1.0  0.65165  0.84378  0.37290  1.0000
  H   H148      1.0  0.88821  0.68084  0.22970  1.0000
  C   C205      1.0  0.77259  0.74803  0.36394  1.0000
  C   C206      1.0  0.80831  0.76463  0.36585  1.0000
  C   C207      1.0  0.82707  0.74812  0.37605  1.0000
  H   H149      1.0  0.82184  0.78996  0.36104  1.0000
  C   C208      1.0  0.75366  0.76524  0.35470  1.0000
  C   C209      1.0  0.69853  0.76307  0.33275  1.0000
  C   C210      1.0  0.71789  0.74839  0.35842  1.0000
  H   H150      1.0  0.70471  0.72420  0.37920  1.0000
  H   H151      1.0  0.67801  0.79872  0.23993  1.0000
  H   H152      1.0  0.85080  0.70653  0.36956  1.0000
  C   C211      1.0  0.77039  0.52515  0.35225  1.0000
  C   C212      1.0  0.75386  0.54425  0.35756  1.0000
  C   C213      1.0  0.76905  0.57840  0.33395  1.0000
  H   H153      1.0  0.72939  0.53329  0.37532  1.0000
  C   C214      1.0  0.75222  0.98894  0.35101  1.0000
  C   C215      1.0  0.75053  0.93446  0.32641  1.0000
  C   C216      1.0  0.76804  0.96914  0.34620  1.0000
  H   H154      1.0  0.79294  0.97970  0.35883  1.0000
  H   H155      1.0  0.71444  0.88065  0.23549  1.0000
  H   H156      1.0  0.80515  0.63515  0.24515  1.0000
  N   N55       1.0  0.64162  0.74097  0.28452  1.0000
  C   C217      1.0  0.61131  0.73899  0.29325  1.0000
  H   H157      1.0  0.59862  0.73781  0.23548  1.0000
  N   N56       1.0  0.77935  0.90545  0.28032  1.0000
  C   C218      1.0  0.78161  0.87705  0.27869  1.0000
  H   H158      1.0  0.79117  0.87207  0.22234  1.0000
  N   N57       1.0  0.61245  0.87042  0.29040  1.0000
  C   C219      1.0  0.63944  0.90096  0.27320  1.0000
  H   H159      1.0  0.64563  0.90804  0.20728  1.0000
  N   N58       1.0  0.87730  0.77240  0.29162  1.0000
  C   C220      1.0  0.90770  0.77551  0.27454  1.0000
  H   H160      1.0  0.91509  0.77704  0.20868  1.0000
  N   N59       1.0  0.74663  0.61280  0.28710  1.0000
  C   C221      1.0  0.74505  0.64127  0.29660  1.0000
  H   H161      1.0  0.74358  0.65281  0.23923  1.0000
  N   N60       1.0  0.91093  0.63920  0.27920  1.0000
  C   C222      1.0  0.88259  0.60845  0.27910  1.0000
  H   H162      1.0  0.87731  0.59372  0.22304  1.0000
  C   C223      1.0  0.92582  0.71698  0.30270  1.0000
  C   C224      1.0  0.94258  0.75147  0.32621  1.0000
  C   C225      1.0  0.97653  0.76640  0.35285  1.0000
  N   N61       1.0  0.89571  0.70198  0.25949  1.0000
  C   C226      1.0  0.55086  0.75047  0.36449  1.0000
  C   C227      1.0  0.58613  0.76706  0.37542  1.0000
  C   C228      1.0  0.60435  0.80276  0.37878  1.0000
  N   N62       1.0  0.63859  0.81988  0.37670  1.0000
  H   H163      1.0  0.65157  0.80910  0.36902  1.0000
  H   H164      1.0  0.88595  0.71465  0.23627  1.0000
  H   H165      1.0  0.98746  0.79078  0.37182  1.0000
  H   H166      1.0  0.53910  0.72514  0.35992  1.0000
  C   C229      1.0  0.80967  0.71244  0.38030  1.0000
  C   C230      1.0  0.77399  0.69449  0.37831  1.0000
  C   C231      1.0  0.75683  0.71245  0.36686  1.0000
  N   N63       1.0  0.82702  0.69556  0.37737  1.0000
  C   C232      1.0  0.76885  0.80074  0.34641  1.0000
  C   C233      1.0  0.75073  0.81720  0.32600  1.0000
  C   C234      1.0  0.71594  0.79734  0.30742  1.0000
  N   N64       1.0  0.70042  0.81168  0.26305  1.0000
  H   H167      1.0  0.71386  0.83255  0.23172  1.0000
  H   H168      1.0  0.81637  0.67172  0.37291  1.0000
  H   H169      1.0  0.73159  0.69827  0.36070  1.0000
  H   H170      1.0  0.79374  0.81570  0.35776  1.0000
  C   C235      1.0  0.80348  0.59533  0.31070  1.0000
  C   C236      1.0  0.82297  0.57995  0.32846  1.0000
  C   C237      1.0  0.80598  0.54502  0.34495  1.0000
  N   N65       1.0  0.81803  0.62556  0.26820  1.0000
  C   C238      1.0  0.71652  0.96979  0.35113  1.0000
  C   C239      1.0  0.69800  0.93578  0.32568  1.0000
  C   C240      1.0  0.71592  0.91906  0.30472  1.0000
  N   N66       1.0  0.70088  0.88867  0.26311  1.0000
  H   H171      1.0  0.67840  0.87837  0.23997  1.0000
  H   H172      1.0  0.83944  0.63389  0.23929  1.0000
  H   H173      1.0  0.82047  0.53434  0.35266  1.0000
  H   H174      1.0  0.70266  0.98075  0.36457  1.0000
  C   C241      1.0  0.66378  0.74723  0.35310  1.0000
  C   C242      1.0  0.60333  0.74867  0.37618  1.0000
  N   N67       1.0  0.62561  0.75499  0.44447  1.0000
  C   C243      1.0  0.65360  0.75233  0.43932  1.0000
  O   O19       1.0  0.67535  0.76477  0.51041  1.0000
  C   C244      1.0  0.66936  0.73983  0.57717  1.0000
  H   H175      1.0  0.68760  0.75166  0.63124  1.0000
  H   H176      1.0  0.67247  0.71975  0.54873  1.0000
  H   H177      1.0  0.64445  0.72938  0.60663  1.0000
  C   C245      1.0  0.76422  0.91361  0.34704  1.0000
  C   C246      1.0  0.76403  0.85182  0.34400  1.0000
  N   N68       1.0  0.74768  0.85952  0.40769  1.0000
  C   C247      1.0  0.74858  0.88918  0.41593  1.0000
  O   O20       1.0  0.72807  0.89106  0.47950  1.0000
  C   C248      1.0  0.74554  0.90800  0.56043  1.0000
  H   H178      1.0  0.72751  0.90830  0.60732  1.0000
  H   H179      1.0  0.76460  0.93383  0.54648  1.0000
  H   H180      1.0  0.75704  0.89505  0.59317  1.0000
  C   C249      1.0  0.60368  0.85613  0.37400  1.0000
  C   C250      1.0  0.66314  0.91718  0.34288  1.0000
  N   N69       1.0  0.65446  0.90270  0.42611  1.0000
  C   C251      1.0  0.62498  0.87485  0.44648  1.0000
  O   O21       1.0  0.62238  0.86100  0.52990  1.0000
  C   C252      1.0  0.60119  0.86647  0.59000  1.0000
  H   H181      1.0  0.60042  0.85477  0.65468  1.0000
  H   H182      1.0  0.57569  0.85515  0.56402  1.0000
  H   H183      1.0  0.61094  0.89308  0.60191  1.0000
  C   C253      1.0  0.86265  0.76663  0.37481  1.0000
  C   C254      1.0  0.92388  0.76772  0.34369  1.0000
  N   N70       1.0  0.90909  0.76168  0.42662  1.0000
  C   C255      1.0  0.88127  0.76346  0.44691  1.0000
  O   O22       1.0  0.86717  0.75195  0.53001  1.0000
  C   C256      1.0  0.87215  0.77835  0.59049  1.0000
  H   H184      1.0  0.86027  0.76716  0.65480  1.0000
  H   H185      1.0  0.86071  0.79238  0.56441  1.0000
  H   H186      1.0  0.89867  0.79536  0.60312  1.0000
  C   C257      1.0  0.75318  0.59707  0.35540  1.0000
  C   C258      1.0  0.75575  0.65900  0.37921  1.0000
  N   N71       1.0  0.76225  0.64316  0.44725  1.0000
  C   C259      1.0  0.75904  0.61234  0.44174  1.0000
  O   O23       1.0  0.77171  0.60286  0.51192  1.0000
  C   C260      1.0  0.74686  0.58334  0.57829  1.0000
  H   H187      1.0  0.75883  0.57680  0.63164  1.0000
  H   H188      1.0  0.72691  0.56021  0.54913  1.0000
  H   H189      1.0  0.73619  0.59743  0.60889  1.0000
  C   C261      1.0  0.91941  0.66284  0.34514  1.0000
  C   C262      1.0  0.85773  0.60093  0.34554  1.0000
  N   N72       1.0  0.86579  0.62535  0.40838  1.0000
  C   C263      1.0  0.89537  0.65429  0.41494  1.0000
  O   O24       1.0  0.89754  0.67692  0.47814  1.0000
  C   C264      1.0  0.91397  0.67595  0.55965  1.0000
  H   H190      1.0  0.91454  0.69449  0.60627  1.0000
  H   H191      1.0  0.93969  0.68218  0.54646  1.0000
  H   H192      1.0  0.90048  0.65152  0.59235  1.0000
