data_image0
_chemical_formula_structural       C3HCH3C3HCH3C3HCH3C3HCH3C3HCH3C3HCH3C3HCH3C3HCH3C3HCH3C3HCH3C3HCH3C3HCH3C3HCH3C3HCH3C3HCH3C3HCH3C3HCH3C3HCH3NC18H12NC18H12NC18H12NC18H12NC18H12NC18H12NC18H12NC18H12NC18H12NC18H12NC18H12NC18H12C3HCH3C3HCH3C3HCH3C3HCH3C3HCH3C3HCH3C3HCH3C3HCH3C3HCH3C3HCH3C3HCH3C3HCH3C3HCH3C3HCH3C3HCH3C3HCH3C3HCH3C3HCH3
_chemical_formula_sum              "C360 H288 N12"
_cell_length_a       64.2675
_cell_length_b       64.2674
_cell_length_c       14.735
_cell_angle_alpha    90
_cell_angle_beta     90
_cell_angle_gamma    120

_space_group_name_H-M_alt    "P 1"
_space_group_IT_number       1

loop_
  _space_group_symop_operation_xyz
  'x, y, z'

loop_
  _atom_site_type_symbol
  _atom_site_label
  _atom_site_symmetry_multiplicity
  _atom_site_fract_x
  _atom_site_fract_y
  _atom_site_fract_z
  _atom_site_occupancy
  C   C1        1.0  0.21729  0.41838  0.34407  1.0000
  C   C2        1.0  0.19974  0.40395  0.27771  1.0000
  C   C3        1.0  0.18853  0.37845  0.28155  1.0000
  H   H1        1.0  0.17566  0.36851  0.23414  1.0000
  C   C4        1.0  0.19112  0.41399  0.20528  1.0000
  H   H2        1.0  0.19762  0.43311  0.21292  1.0000
  H   H3        1.0  0.17152  0.40499  0.20622  1.0000
  H   H4        1.0  0.19686  0.41103  0.13911  1.0000
  C   C5        1.0  0.59142  0.79072  0.34411  1.0000
  C   C6        1.0  0.60585  0.78760  0.27774  1.0000
  C   C7        1.0  0.63135  0.80190  0.28158  1.0000
  H   H5        1.0  0.64129  0.79897  0.23416  1.0000
  C   C8        1.0  0.59581  0.76894  0.20530  1.0000
  H   H6        1.0  0.57669  0.75633  0.21293  1.0000
  H   H7        1.0  0.60480  0.75833  0.20624  1.0000
  H   H8        1.0  0.59877  0.77764  0.13914  1.0000
  C   C9        1.0  0.21908  0.79252  0.34411  1.0000
  C   C10       1.0  0.22220  0.81007  0.27773  1.0000
  C   C11       1.0  0.20791  0.82128  0.28157  1.0000
  H   H9        1.0  0.21084  0.83415  0.23415  1.0000
  C   C12       1.0  0.24086  0.81869  0.20530  1.0000
  H   H10       1.0  0.25347  0.81218  0.21294  1.0000
  H   H11       1.0  0.25147  0.83829  0.20624  1.0000
  H   H12       1.0  0.23217  0.81295  0.13914  1.0000
  C   C13       1.0  0.80124  0.58270  0.34407  1.0000
  C   C14       1.0  0.81878  0.59713  0.27769  1.0000
  C   C15       1.0  0.82999  0.62264  0.28154  1.0000
  H   H13       1.0  0.84285  0.63257  0.23412  1.0000
  C   C16       1.0  0.82739  0.58709  0.20523  1.0000
  H   H14       1.0  0.82088  0.56798  0.21284  1.0000
  H   H15       1.0  0.84700  0.59609  0.20615  1.0000
  H   H16       1.0  0.82165  0.59005  0.13908  1.0000
  C   C17       1.0  0.42712  0.21035  0.34408  1.0000
  C   C18       1.0  0.41269  0.21348  0.27772  1.0000
  C   C19       1.0  0.38718  0.19918  0.28156  1.0000
  H   H17       1.0  0.37725  0.20212  0.23415  1.0000
  C   C20       1.0  0.42273  0.23214  0.20529  1.0000
  H   H18       1.0  0.44185  0.24474  0.21292  1.0000
  H   H19       1.0  0.41374  0.24275  0.20622  1.0000
  H   H20       1.0  0.41977  0.22344  0.13912  1.0000
  C   C21       1.0  0.79943  0.20856  0.34409  1.0000
  C   C22       1.0  0.79631  0.19101  0.27774  1.0000
  C   C23       1.0  0.81061  0.17980  0.28158  1.0000
  H   H21       1.0  0.80767  0.16693  0.23417  1.0000
  C   C24       1.0  0.77765  0.18238  0.20532  1.0000
  H   H22       1.0  0.76503  0.18889  0.21297  1.0000
  H   H23       1.0  0.76704  0.16278  0.20627  1.0000
  H   H24       1.0  0.78634  0.18812  0.13915  1.0000
  C   C25       1.0  0.21898  0.18502  0.35209  1.0000
  C   C26       1.0  0.22355  0.20402  0.29045  1.0000
  C   C27       1.0  0.20968  0.21566  0.29553  1.0000
  H   H25       1.0  0.21336  0.22933  0.25099  1.0000
  C   C28       1.0  0.24347  0.21304  0.22295  1.0000
  H   H26       1.0  0.26003  0.21624  0.25578  1.0000
  H   H27       1.0  0.24711  0.22993  0.19150  1.0000
  H   H28       1.0  0.23895  0.19998  0.16865  1.0000
  C   C29       1.0  0.82478  0.02579  0.35212  1.0000
  C   C30       1.0  0.80579  0.01136  0.29045  1.0000
  C   C31       1.0  0.79414  0.98584  0.29553  1.0000
  H   H29       1.0  0.78049  0.97586  0.25097  1.0000
  C   C32       1.0  0.79677  0.02225  0.22293  1.0000
  H   H30       1.0  0.79357  0.03562  0.25575  1.0000
  H   H31       1.0  0.77988  0.00900  0.19146  1.0000
  H   H32       1.0  0.80984  0.03079  0.16864  1.0000
  C   C33       1.0  0.98402  0.79084  0.35211  1.0000
  C   C34       1.0  0.99845  0.78628  0.29045  1.0000
  C   C35       1.0  0.02397  0.80015  0.29553  1.0000
  H   H33       1.0  0.03395  0.79647  0.25096  1.0000
  C   C36       1.0  0.98756  0.76637  0.22292  1.0000
  H   H34       1.0  0.97419  0.74980  0.25572  1.0000
  H   H35       1.0  0.00080  0.76272  0.19146  1.0000
  H   H36       1.0  0.97902  0.77089  0.16862  1.0000
  C   C37       1.0  0.79954  0.81607  0.35215  1.0000
  C   C38       1.0  0.79498  0.79707  0.29051  1.0000
  C   C39       1.0  0.80885  0.78542  0.29558  1.0000
  H   H37       1.0  0.80516  0.77176  0.25104  1.0000
  C   C40       1.0  0.77506  0.78805  0.22302  1.0000
  H   H38       1.0  0.75849  0.78485  0.25586  1.0000
  H   H39       1.0  0.77140  0.77115  0.19159  1.0000
  H   H40       1.0  0.77957  0.80110  0.16871  1.0000
  C   C41       1.0  0.19374  0.97531  0.35212  1.0000
  C   C42       1.0  0.21275  0.98974  0.29050  1.0000
  C   C43       1.0  0.22440  0.01526  0.29558  1.0000
  H   H41       1.0  0.23806  0.02523  0.25105  1.0000
  C   C44       1.0  0.22178  0.97884  0.22303  1.0000
  H   H42       1.0  0.22497  0.96547  0.25589  1.0000
  H   H43       1.0  0.23868  0.99209  0.19162  1.0000
  H   H44       1.0  0.20872  0.97030  0.16871  1.0000
  C   C45       1.0  0.03450  0.21026  0.35214  1.0000
  C   C46       1.0  0.02008  0.21483  0.29051  1.0000
  C   C47       1.0  0.99455  0.20096  0.29559  1.0000
  H   H45       1.0  0.98458  0.20465  0.25106  1.0000
  C   C48       1.0  0.03097  0.23476  0.22304  1.0000
  H   H46       1.0  0.04434  0.25132  0.25589  1.0000
  H   H47       1.0  0.01773  0.23841  0.19161  1.0000
  H   H48       1.0  0.03952  0.23025  0.16872  1.0000
  C   C49       1.0  0.24401  0.59551  0.33494  1.0000
  C   C50       1.0  0.24205  0.60848  0.25991  1.0000
  C   C51       1.0  0.24343  0.63096  0.27484  1.0000
  H   H49       1.0  0.24369  0.64059  0.21903  1.0000
  C   C52       1.0  0.23759  0.59944  0.16468  1.0000
  H   H50       1.0  0.23250  0.58057  0.15953  1.0000
  H   H51       1.0  0.25368  0.61010  0.12384  1.0000
  H   H52       1.0  0.22281  0.60100  0.13539  1.0000
  C   C53       1.0  0.41429  0.64030  0.33492  1.0000
  C   C54       1.0  0.40131  0.62538  0.25989  1.0000
  C   C55       1.0  0.37883  0.60429  0.27482  1.0000
  H   H53       1.0  0.36919  0.59492  0.21902  1.0000
  C   C56       1.0  0.41034  0.62997  0.16463  1.0000
  H   H54       1.0  0.42920  0.64375  0.15945  1.0000
  H   H55       1.0  0.39968  0.63541  0.12386  1.0000
  H   H56       1.0  0.40877  0.61364  0.13530  1.0000
  C   C57       1.0  0.36949  0.76581  0.33488  1.0000
  C   C58       1.0  0.38441  0.76777  0.25984  1.0000
  C   C59       1.0  0.40551  0.76638  0.27477  1.0000
  H   H57       1.0  0.41488  0.76612  0.21896  1.0000
  C   C60       1.0  0.37983  0.77221  0.16460  1.0000
  H   H58       1.0  0.36606  0.77731  0.15944  1.0000
  H   H59       1.0  0.37440  0.75613  0.12379  1.0000
  H   H60       1.0  0.39617  0.78699  0.13530  1.0000
  C   C61       1.0  0.77454  0.40557  0.33492  1.0000
  C   C62       1.0  0.77651  0.39261  0.25989  1.0000
  C   C63       1.0  0.77511  0.37013  0.27483  1.0000
  H   H61       1.0  0.77486  0.36049  0.21903  1.0000
  C   C64       1.0  0.78095  0.40164  0.16465  1.0000
  H   H62       1.0  0.78605  0.42051  0.15948  1.0000
  H   H63       1.0  0.76487  0.39098  0.12383  1.0000
  H   H64       1.0  0.79573  0.40008  0.13536  1.0000
  C   C65       1.0  0.60421  0.36077  0.33490  1.0000
  C   C66       1.0  0.61716  0.37570  0.25986  1.0000
  C   C67       1.0  0.63965  0.39680  0.27476  1.0000
  H   H65       1.0  0.64927  0.40617  0.21894  1.0000
  C   C68       1.0  0.60812  0.37112  0.16464  1.0000
  H   H66       1.0  0.58925  0.35733  0.15951  1.0000
  H   H67       1.0  0.61877  0.36570  0.12377  1.0000
  H   H68       1.0  0.60966  0.38745  0.13538  1.0000
  C   C69       1.0  0.64902  0.23524  0.33491  1.0000
  C   C70       1.0  0.63409  0.23326  0.25987  1.0000
  C   C71       1.0  0.61299  0.23465  0.27478  1.0000
  H   H69       1.0  0.60361  0.23489  0.21898  1.0000
  C   C72       1.0  0.63867  0.22881  0.16464  1.0000
  H   H70       1.0  0.65246  0.22373  0.15951  1.0000
  H   H71       1.0  0.64409  0.24489  0.12379  1.0000
  H   H72       1.0  0.62234  0.21402  0.13538  1.0000
  N   N1        1.0  0.13904  0.26175  0.35481  1.0000
  C   C73       1.0  0.11308  0.24890  0.35409  1.0000
  C   C74       1.0  0.15226  0.28767  0.35359  1.0000
  C   C75       1.0  0.15203  0.24879  0.35603  1.0000
  C   C76       1.0  0.15286  0.23588  0.27961  1.0000
  C   C77       1.0  0.16562  0.22321  0.28132  1.0000
  C   C78       1.0  0.17822  0.22275  0.35962  1.0000
  C   C79       1.0  0.17789  0.23625  0.43529  1.0000
  C   C80       1.0  0.16501  0.24884  0.43368  1.0000
  C   C81       1.0  0.09956  0.24630  0.43338  1.0000
  C   C82       1.0  0.07410  0.23395  0.43239  1.0000
  C   C83       1.0  0.06070  0.22325  0.35227  1.0000
  C   C84       1.0  0.07437  0.22526  0.27374  1.0000
  C   C85       1.0  0.09982  0.23804  0.27425  1.0000
  C   C86       1.0  0.15260  0.30150  0.42894  1.0000
  C   C87       1.0  0.16577  0.32693  0.42750  1.0000
  C   C88       1.0  0.17977  0.33990  0.35136  1.0000
  C   C89       1.0  0.17918  0.32598  0.27558  1.0000
  C   C90       1.0  0.16584  0.30053  0.27680  1.0000
  H   H73       1.0  0.06531  0.23296  0.49155  1.0000
  H   H74       1.0  0.10825  0.25339  0.49323  1.0000
  H   H75       1.0  0.10871  0.23934  0.21519  1.0000
  H   H76       1.0  0.06585  0.21700  0.21487  1.0000
  H   H77       1.0  0.14425  0.23577  0.22124  1.0000
  H   H78       1.0  0.16541  0.21397  0.22443  1.0000
  H   H79       1.0  0.14330  0.29308  0.48633  1.0000
  H   H80       1.0  0.16518  0.33603  0.48353  1.0000
  H   H81       1.0  0.18888  0.33438  0.21866  1.0000
  H   H82       1.0  0.16613  0.29127  0.22082  1.0000
  H   H83       1.0  0.16514  0.25816  0.49010  1.0000
  H   H84       1.0  0.18711  0.23697  0.49293  1.0000
  N   N2        1.0  0.74806  0.86912  0.35481  1.0000
  C   C91       1.0  0.76090  0.85600  0.35409  1.0000
  C   C92       1.0  0.72213  0.85641  0.35359  1.0000
  C   C93       1.0  0.76100  0.89505  0.35604  1.0000
  C   C94       1.0  0.77391  0.90880  0.27961  1.0000
  C   C95       1.0  0.78660  0.93423  0.28133  1.0000
  C   C96       1.0  0.78705  0.94729  0.35963  1.0000
  C   C97       1.0  0.77355  0.93346  0.43529  1.0000
  C   C98       1.0  0.76096  0.90800  0.43368  1.0000
  C   C99       1.0  0.76349  0.84507  0.43338  1.0000
  C   C100      1.0  0.77584  0.83197  0.43239  1.0000
  C   C101      1.0  0.78655  0.82927  0.35227  1.0000
  C   C102      1.0  0.78454  0.84094  0.27374  1.0000
  C   C103      1.0  0.77176  0.85360  0.27425  1.0000
  C   C104      1.0  0.70830  0.84292  0.42894  1.0000
  C   C105      1.0  0.68287  0.83067  0.42751  1.0000
  C   C106      1.0  0.66990  0.83169  0.35137  1.0000
  C   C107      1.0  0.68382  0.84501  0.27558  1.0000
  C   C108      1.0  0.70927  0.85712  0.27680  1.0000
  H   H85       1.0  0.77684  0.82417  0.49155  1.0000
  H   H86       1.0  0.75641  0.84669  0.49323  1.0000
  H   H87       1.0  0.77046  0.86120  0.21520  1.0000
  H   H88       1.0  0.79280  0.84067  0.21488  1.0000
  H   H89       1.0  0.77404  0.90031  0.22124  1.0000
  H   H90       1.0  0.79584  0.94326  0.22445  1.0000
  H   H91       1.0  0.71672  0.84205  0.48633  1.0000
  H   H92       1.0  0.67378  0.82098  0.48354  1.0000
  H   H93       1.0  0.67542  0.84632  0.21866  1.0000
  H   H94       1.0  0.71852  0.86667  0.22082  1.0000
  H   H95       1.0  0.75163  0.89880  0.49010  1.0000
  H   H96       1.0  0.77282  0.94196  0.49294  1.0000
  N   N3        1.0  0.14069  0.87077  0.35479  1.0000
  C   C109      1.0  0.15380  0.89673  0.35407  1.0000
  C   C110      1.0  0.15340  0.85755  0.35357  1.0000
  C   C111      1.0  0.11476  0.85778  0.35602  1.0000
  C   C112      1.0  0.10101  0.85696  0.27961  1.0000
  C   C113      1.0  0.07558  0.84421  0.28134  1.0000
  C   C114      1.0  0.06252  0.83160  0.35963  1.0000
  C   C115      1.0  0.07635  0.83192  0.43528  1.0000
  C   C116      1.0  0.10181  0.84479  0.43366  1.0000
  C   C117      1.0  0.16473  0.91026  0.43336  1.0000
  C   C118      1.0  0.17784  0.93571  0.43238  1.0000
  C   C119      1.0  0.18055  0.94912  0.35225  1.0000
  C   C120      1.0  0.16888  0.93544  0.27372  1.0000
  C   C121      1.0  0.15621  0.90999  0.27423  1.0000
  C   C122      1.0  0.16690  0.85722  0.42892  1.0000
  C   C123      1.0  0.17915  0.84405  0.42749  1.0000
  C   C124      1.0  0.17813  0.83005  0.35137  1.0000
  C   C125      1.0  0.16480  0.83064  0.27556  1.0000
  C   C126      1.0  0.15269  0.84398  0.27678  1.0000
  H   H97       1.0  0.18563  0.94450  0.49154  1.0000
  H   H98       1.0  0.16312  0.90156  0.49323  1.0000
  H   H99       1.0  0.14862  0.90110  0.21517  1.0000
  H   H100      1.0  0.16915  0.94396  0.21484  1.0000
  H   H101      1.0  0.10950  0.86557  0.22124  1.0000
  H   H102      1.0  0.06655  0.84442  0.22445  1.0000
  H   H103      1.0  0.16777  0.86652  0.48632  1.0000
  H   H104      1.0  0.18883  0.84464  0.48354  1.0000
  H   H105      1.0  0.16349  0.82093  0.21866  1.0000
  H   H106      1.0  0.14314  0.84369  0.22081  1.0000
  H   H107      1.0  0.11101  0.84466  0.49008  1.0000
  H   H108      1.0  0.06785  0.82270  0.49292  1.0000
  N   N4        1.0  0.87948  0.73934  0.35480  1.0000
  C   C127      1.0  0.90545  0.75219  0.35408  1.0000
  C   C128      1.0  0.86627  0.71341  0.35359  1.0000
  C   C129      1.0  0.86649  0.75229  0.35603  1.0000
  C   C130      1.0  0.86565  0.76520  0.27961  1.0000
  C   C131      1.0  0.85291  0.77788  0.28133  1.0000
  C   C132      1.0  0.84031  0.77834  0.35965  1.0000
  C   C133      1.0  0.84064  0.76484  0.43531  1.0000
  C   C134      1.0  0.85352  0.75226  0.43370  1.0000
  C   C135      1.0  0.91897  0.75477  0.43336  1.0000
  C   C136      1.0  0.94443  0.76713  0.43237  1.0000
  C   C137      1.0  0.95783  0.77784  0.35225  1.0000
  C   C138      1.0  0.94415  0.77584  0.27373  1.0000
  C   C139      1.0  0.91870  0.76306  0.27425  1.0000
  C   C140      1.0  0.86593  0.69958  0.42894  1.0000
  C   C141      1.0  0.85276  0.67416  0.42750  1.0000
  C   C142      1.0  0.83876  0.66119  0.35137  1.0000
  C   C143      1.0  0.83935  0.67510  0.27557  1.0000
  C   C144      1.0  0.85269  0.70055  0.27679  1.0000
  H   H109      1.0  0.95322  0.76812  0.49151  1.0000
  H   H110      1.0  0.91027  0.74768  0.49321  1.0000
  H   H111      1.0  0.90981  0.76176  0.21520  1.0000
  H   H112      1.0  0.95268  0.78411  0.21487  1.0000
  H   H113      1.0  0.87426  0.76531  0.22122  1.0000
  H   H114      1.0  0.85311  0.78711  0.22443  1.0000
  H   H115      1.0  0.87523  0.70801  0.48633  1.0000
  H   H116      1.0  0.85335  0.66506  0.48354  1.0000
  H   H117      1.0  0.82964  0.66670  0.21866  1.0000
  H   H118      1.0  0.85240  0.70981  0.22081  1.0000
  H   H119      1.0  0.85339  0.74293  0.49012  1.0000
  H   H120      1.0  0.83143  0.76412  0.49297  1.0000
  N   N5        1.0  0.27048  0.13197  0.35479  1.0000
  C   C145      1.0  0.25763  0.14509  0.35406  1.0000
  C   C146      1.0  0.29641  0.14469  0.35357  1.0000
  C   C147      1.0  0.25753  0.10604  0.35602  1.0000
  C   C148      1.0  0.24463  0.09229  0.27959  1.0000
  C   C149      1.0  0.23194  0.06686  0.28131  1.0000
  C   C150      1.0  0.23148  0.05381  0.35963  1.0000
  C   C151      1.0  0.24497  0.06763  0.43530  1.0000
  C   C152      1.0  0.25756  0.09309  0.43368  1.0000
  C   C153      1.0  0.25504  0.15603  0.43334  1.0000
  C   C154      1.0  0.24269  0.16913  0.43235  1.0000
  C   C155      1.0  0.23199  0.17183  0.35222  1.0000
  C   C156      1.0  0.23399  0.16015  0.27371  1.0000
  C   C157      1.0  0.24677  0.14748  0.27423  1.0000
  C   C158      1.0  0.31023  0.15818  0.42892  1.0000
  C   C159      1.0  0.33566  0.17042  0.42750  1.0000
  C   C160      1.0  0.34863  0.16940  0.35137  1.0000
  C   C161      1.0  0.33472  0.15608  0.27556  1.0000
  C   C162      1.0  0.30927  0.14397  0.27679  1.0000
  H   H121      1.0  0.24170  0.17693  0.49150  1.0000
  H   H122      1.0  0.26212  0.15441  0.49320  1.0000
  H   H123      1.0  0.24806  0.13989  0.21518  1.0000
  H   H124      1.0  0.22572  0.16041  0.21484  1.0000
  H   H125      1.0  0.24451  0.10078  0.22120  1.0000
  H   H126      1.0  0.22271  0.05783  0.22440  1.0000
  H   H127      1.0  0.30181  0.15905  0.48631  1.0000
  H   H128      1.0  0.34476  0.18012  0.48353  1.0000
  H   H129      1.0  0.34311  0.15477  0.21866  1.0000
  H   H130      1.0  0.30001  0.13442  0.22081  1.0000
  H   H131      1.0  0.26688  0.10229  0.49011  1.0000
  H   H132      1.0  0.24569  0.05914  0.49295  1.0000
  N   N6        1.0  0.87784  0.13033  0.35480  1.0000
  C   C163      1.0  0.86472  0.10437  0.35408  1.0000
  C   C164      1.0  0.86512  0.14354  0.35359  1.0000
  C   C165      1.0  0.90377  0.14331  0.35602  1.0000
  C   C166      1.0  0.91752  0.14416  0.27960  1.0000
  C   C167      1.0  0.94295  0.15690  0.28132  1.0000
  C   C168      1.0  0.95600  0.16949  0.35964  1.0000
  C   C169      1.0  0.94218  0.16916  0.43532  1.0000
  C   C170      1.0  0.91671  0.15629  0.43370  1.0000
  C   C171      1.0  0.85377  0.09084  0.43336  1.0000
  C   C172      1.0  0.84067  0.06538  0.43237  1.0000
  C   C173      1.0  0.83798  0.05198  0.35224  1.0000
  C   C174      1.0  0.84965  0.06566  0.27373  1.0000
  C   C175      1.0  0.86233  0.09111  0.27425  1.0000
  C   C176      1.0  0.85164  0.14389  0.42895  1.0000
  C   C177      1.0  0.83939  0.15706  0.42752  1.0000
  C   C178      1.0  0.84040  0.17104  0.35137  1.0000
  C   C179      1.0  0.85372  0.17046  0.27558  1.0000
  C   C180      1.0  0.86583  0.15711  0.27680  1.0000
  H   H133      1.0  0.83287  0.05659  0.49152  1.0000
  H   H134      1.0  0.85539  0.09954  0.49321  1.0000
  H   H135      1.0  0.86993  0.10000  0.21520  1.0000
  H   H136      1.0  0.84940  0.05713  0.21488  1.0000
  H   H137      1.0  0.90902  0.13555  0.22121  1.0000
  H   H138      1.0  0.95198  0.15671  0.22442  1.0000
  H   H139      1.0  0.85076  0.13459  0.48635  1.0000
  H   H140      1.0  0.82970  0.15647  0.48356  1.0000
  H   H141      1.0  0.85503  0.18016  0.21866  1.0000
  H   H142      1.0  0.87538  0.15740  0.22081  1.0000
  H   H143      1.0  0.90751  0.15641  0.49013  1.0000
  H   H144      1.0  0.95067  0.17837  0.49297  1.0000
  N   N7        1.0  0.27001  0.52265  0.34717  1.0000
  C   C181      1.0  0.29535  0.53680  0.36651  1.0000
  C   C182      1.0  0.25717  0.49677  0.34671  1.0000
  C   C183      1.0  0.25839  0.53640  0.32842  1.0000
  C   C184      1.0  0.26814  0.55485  0.26226  1.0000
  C   C185      1.0  0.26311  0.57385  0.26373  1.0000
  C   C186      1.0  0.24672  0.57448  0.32664  1.0000
  C   C187      1.0  0.23543  0.55475  0.38749  1.0000
  C   C188      1.0  0.24143  0.53640  0.38951  1.0000
  C   C189      1.0  0.31258  0.53641  0.30802  1.0000
  C   C190      1.0  0.33698  0.55464  0.31123  1.0000
  C   C191      1.0  0.34520  0.57479  0.36986  1.0000
  C   C192      1.0  0.32781  0.57469  0.42949  1.0000
  C   C193      1.0  0.30380  0.55566  0.43089  1.0000
  C   C194      1.0  0.25640  0.48361  0.26861  1.0000
  C   C195      1.0  0.24372  0.45816  0.26802  1.0000
  C   C196      1.0  0.23052  0.44453  0.34456  1.0000
  C   C197      1.0  0.23163  0.45788  0.42301  1.0000
  C   C198      1.0  0.24466  0.48333  0.42414  1.0000
  H   H145      1.0  0.34855  0.55372  0.26588  1.0000
  H   H146      1.0  0.30721  0.52359  0.25859  1.0000
  H   H147      1.0  0.29178  0.55736  0.47122  1.0000
  H   H148      1.0  0.33213  0.58925  0.46980  1.0000
  H   H149      1.0  0.28138  0.55621  0.21995  1.0000
  H   H150      1.0  0.27283  0.58811  0.22143  1.0000
  H   H151      1.0  0.26519  0.49260  0.21110  1.0000
  H   H152      1.0  0.24408  0.44954  0.21018  1.0000
  H   H153      1.0  0.22260  0.44906  0.48051  1.0000
  H   H154      1.0  0.24492  0.49211  0.48235  1.0000
  H   H155      1.0  0.23471  0.52403  0.44067  1.0000
  H   H156      1.0  0.22365  0.55429  0.43524  1.0000
  N   N8        1.0  0.48715  0.73915  0.34736  1.0000
  C   C199      1.0  0.47301  0.75036  0.36647  1.0000
  C   C200      1.0  0.51303  0.75219  0.34683  1.0000
  C   C201      1.0  0.47341  0.71378  0.32852  1.0000
  C   C202      1.0  0.45499  0.70509  0.26223  1.0000
  C   C203      1.0  0.43596  0.68107  0.26382  1.0000
  C   C204      1.0  0.43534  0.66404  0.32663  1.0000
  C   C205      1.0  0.45507  0.67245  0.38744  1.0000
  C   C206      1.0  0.47339  0.69683  0.38965  1.0000
  C   C207      1.0  0.47339  0.76798  0.30800  1.0000
  C   C208      1.0  0.45514  0.77414  0.31113  1.0000
  C   C209      1.0  0.43499  0.76221  0.36979  1.0000
  C   C210      1.0  0.43509  0.74494  0.42947  1.0000
  C   C211      1.0  0.45408  0.73989  0.43056  1.0000
  C   C212      1.0  0.52618  0.76460  0.26873  1.0000
  C   C213      1.0  0.55163  0.77737  0.26810  1.0000
  C   C214      1.0  0.56527  0.77780  0.34462  1.0000
  C   C215      1.0  0.55193  0.76555  0.42307  1.0000
  C   C216      1.0  0.52648  0.75312  0.42423  1.0000
  H   H157      1.0  0.45608  0.78664  0.26584  1.0000
  H   H158      1.0  0.48622  0.77545  0.25866  1.0000
  H   H159      1.0  0.45243  0.72624  0.47120  1.0000
  H   H160      1.0  0.42053  0.73469  0.46974  1.0000
  H   H161      1.0  0.45357  0.71696  0.22010  1.0000
  H   H162      1.0  0.42169  0.67654  0.22160  1.0000
  H   H163      1.0  0.51718  0.76439  0.21123  1.0000
  H   H164      1.0  0.56025  0.78635  0.21027  1.0000
  H   H165      1.0  0.56075  0.76533  0.48055  1.0000
  H   H166      1.0  0.51770  0.74460  0.48244  1.0000
  H   H167      1.0  0.48579  0.70245  0.44070  1.0000
  H   H168      1.0  0.45552  0.66114  0.43521  1.0000
  N   N9        1.0  0.27065  0.73982  0.34745  1.0000
  C   C217      1.0  0.25944  0.71447  0.36654  1.0000
  C   C218      1.0  0.25761  0.75266  0.34688  1.0000
  C   C219      1.0  0.29601  0.75144  0.32846  1.0000
  C   C220      1.0  0.30471  0.74173  0.26217  1.0000
  C   C221      1.0  0.32873  0.74672  0.26372  1.0000
  C   C222      1.0  0.34576  0.76313  0.32657  1.0000
  C   C223      1.0  0.33733  0.77443  0.38742  1.0000
  C   C224      1.0  0.31296  0.76837  0.38962  1.0000
  C   C225      1.0  0.24182  0.69723  0.30808  1.0000
  C   C226      1.0  0.23564  0.67282  0.31129  1.0000
  C   C227      1.0  0.24760  0.66461  0.36986  1.0000
  C   C228      1.0  0.26490  0.68200  0.42943  1.0000
  C   C229      1.0  0.26992  0.70602  0.43062  1.0000
  C   C230      1.0  0.24521  0.75341  0.26876  1.0000
  C   C231      1.0  0.23243  0.76609  0.26812  1.0000
  C   C232      1.0  0.23200  0.77929  0.34464  1.0000
  C   C233      1.0  0.24425  0.77821  0.42310  1.0000
  C   C234      1.0  0.25667  0.76518  0.42427  1.0000
  H   H169      1.0  0.22317  0.66126  0.26591  1.0000
  H   H170      1.0  0.23435  0.70259  0.25873  1.0000
  H   H171      1.0  0.28357  0.71802  0.47127  1.0000
  H   H172      1.0  0.27513  0.67767  0.46979  1.0000
  H   H173      1.0  0.29283  0.72842  0.22004  1.0000
  H   H174      1.0  0.33327  0.73699  0.22151  1.0000
  H   H175      1.0  0.24541  0.74461  0.21127  1.0000
  H   H176      1.0  0.22346  0.76573  0.21028  1.0000
  H   H177      1.0  0.24446  0.78725  0.48056  1.0000
  H   H178      1.0  0.26520  0.76493  0.48248  1.0000
  H   H179      1.0  0.30733  0.77514  0.44067  1.0000
  H   H180      1.0  0.34866  0.78620  0.43517  1.0000
  N   N10       1.0  0.74852  0.47843  0.34730  1.0000
  C   C235      1.0  0.72317  0.46430  0.36642  1.0000
  C   C236      1.0  0.76137  0.50431  0.34677  1.0000
  C   C237      1.0  0.76015  0.46469  0.32851  1.0000
  C   C238      1.0  0.75040  0.44624  0.26238  1.0000
  C   C239      1.0  0.75545  0.42725  0.26371  1.0000
  C   C240      1.0  0.77185  0.42662  0.32659  1.0000
  C   C241      1.0  0.78313  0.44634  0.38750  1.0000
  C   C242      1.0  0.77709  0.46467  0.38962  1.0000
  C   C243      1.0  0.70593  0.46467  0.30793  1.0000
  C   C244      1.0  0.68153  0.44643  0.31108  1.0000
  C   C245      1.0  0.67331  0.42628  0.36975  1.0000
  C   C246      1.0  0.69069  0.42638  0.42936  1.0000
  C   C247      1.0  0.71471  0.44537  0.43053  1.0000
  C   C248      1.0  0.76211  0.51747  0.26869  1.0000
  C   C249      1.0  0.77480  0.54292  0.26808  1.0000
  C   C250      1.0  0.78801  0.55655  0.34458  1.0000
  C   C251      1.0  0.78692  0.54321  0.42303  1.0000
  C   C252      1.0  0.77390  0.51776  0.42417  1.0000
  H   H181      1.0  0.66997  0.44737  0.26580  1.0000
  H   H182      1.0  0.71130  0.47750  0.25858  1.0000
  H   H183      1.0  0.72671  0.44372  0.47120  1.0000
  H   H184      1.0  0.68637  0.41183  0.46976  1.0000
  H   H185      1.0  0.73718  0.44488  0.21995  1.0000
  H   H186      1.0  0.74574  0.41299  0.22143  1.0000
  H   H187      1.0  0.75331  0.50847  0.21120  1.0000
  H   H188      1.0  0.77443  0.55154  0.21025  1.0000
  H   H189      1.0  0.79597  0.55204  0.48049  1.0000
  H   H190      1.0  0.77365  0.50899  0.48237  1.0000
  H   H191      1.0  0.78384  0.47705  0.44076  1.0000
  H   H192      1.0  0.79489  0.44678  0.43527  1.0000
  N   N11       1.0  0.53139  0.26191  0.34732  1.0000
  C   C253      1.0  0.54553  0.25069  0.36639  1.0000
  C   C254      1.0  0.50551  0.24887  0.34679  1.0000
  C   C255      1.0  0.54514  0.28729  0.32856  1.0000
  C   C256      1.0  0.56356  0.29597  0.26233  1.0000
  C   C257      1.0  0.58255  0.32000  0.26375  1.0000
  C   C258      1.0  0.58318  0.33703  0.32661  1.0000
  C   C259      1.0  0.56346  0.32859  0.38751  1.0000
  C   C260      1.0  0.54513  0.30423  0.38968  1.0000
  C   C261      1.0  0.54512  0.23307  0.30792  1.0000
  C   C262      1.0  0.56336  0.22690  0.31110  1.0000
  C   C263      1.0  0.58351  0.23882  0.36979  1.0000
  C   C264      1.0  0.58342  0.25611  0.42943  1.0000
  C   C265      1.0  0.56443  0.26115  0.43060  1.0000
  C   C266      1.0  0.49235  0.23648  0.26868  1.0000
  C   C267      1.0  0.46690  0.22370  0.26807  1.0000
  C   C268      1.0  0.45327  0.22327  0.34460  1.0000
  C   C269      1.0  0.46661  0.23552  0.42305  1.0000
  C   C270      1.0  0.49205  0.24794  0.42421  1.0000
  H   H193      1.0  0.56242  0.21439  0.26583  1.0000
  H   H194      1.0  0.53230  0.22561  0.25856  1.0000
  H   H195      1.0  0.56607  0.27479  0.47127  1.0000
  H   H196      1.0  0.59796  0.26632  0.46984  1.0000
  H   H197      1.0  0.56491  0.28411  0.21984  1.0000
  H   H198      1.0  0.59679  0.32456  0.22130  1.0000
  H   H199      1.0  0.50135  0.23668  0.21118  1.0000
  H   H200      1.0  0.45828  0.21473  0.21021  1.0000
  H   H201      1.0  0.45778  0.23573  0.48053  1.0000
  H   H202      1.0  0.50083  0.25646  0.48242  1.0000
  H   H203      1.0  0.53276  0.29859  0.44084  1.0000
  H   H204      1.0  0.56301  0.33991  0.43530  1.0000
  N   N12       1.0  0.74788  0.26128  0.34730  1.0000
  C   C271      1.0  0.75908  0.28663  0.36658  1.0000
  C   C272      1.0  0.76091  0.24844  0.34678  1.0000
  C   C273      1.0  0.72251  0.24968  0.32847  1.0000
  C   C274      1.0  0.71382  0.25942  0.26228  1.0000
  C   C275      1.0  0.68979  0.25438  0.26373  1.0000
  C   C276      1.0  0.67277  0.23797  0.32661  1.0000
  C   C277      1.0  0.68120  0.22666  0.38741  1.0000
  C   C278      1.0  0.70558  0.23272  0.38958  1.0000
  C   C279      1.0  0.77671  0.30385  0.30808  1.0000
  C   C280      1.0  0.78289  0.32826  0.31125  1.0000
  C   C281      1.0  0.77095  0.33648  0.36987  1.0000
  C   C282      1.0  0.75367  0.31911  0.42955  1.0000
  C   C283      1.0  0.74865  0.29509  0.43085  1.0000
  C   C284      1.0  0.77330  0.24766  0.26866  1.0000
  C   C285      1.0  0.78607  0.23498  0.26805  1.0000
  C   C286      1.0  0.78651  0.22179  0.34460  1.0000
  C   C287      1.0  0.77429  0.22291  0.42308  1.0000
  C   C288      1.0  0.76187  0.23594  0.42423  1.0000
  H   H205      1.0  0.79536  0.33980  0.26584  1.0000
  H   H206      1.0  0.78413  0.29846  0.25864  1.0000
  H   H207      1.0  0.73499  0.28307  0.47137  1.0000
  H   H208      1.0  0.74346  0.32344  0.46993  1.0000
  H   H209      1.0  0.72568  0.27264  0.21982  1.0000
  H   H210      1.0  0.68522  0.26405  0.22133  1.0000
  H   H211      1.0  0.77308  0.25644  0.21114  1.0000
  H   H212      1.0  0.79503  0.23533  0.21019  1.0000
  H   H213      1.0  0.77408  0.21388  0.48057  1.0000
  H   H214      1.0  0.75336  0.23621  0.48245  1.0000
  H   H215      1.0  0.71121  0.22598  0.44071  1.0000
  H   H216      1.0  0.66990  0.21491  0.43525  1.0000
  C   C289      1.0  0.19336  0.36600  0.35030  1.0000
  C   C290      1.0  0.21092  0.38040  0.41659  1.0000
  C   C291      1.0  0.22221  0.40590  0.41246  1.0000
  H   H217      1.0  0.23505  0.41579  0.46001  1.0000
  C   C292      1.0  0.21926  0.37027  0.48966  1.0000
  H   H218      1.0  0.21231  0.35105  0.48313  1.0000
  H   H219      1.0  0.21378  0.37367  0.55562  1.0000
  H   H220      1.0  0.23884  0.37889  0.48831  1.0000
  C   C293      1.0  0.64380  0.81918  0.35032  1.0000
  C   C294      1.0  0.62940  0.82233  0.41661  1.0000
  C   C295      1.0  0.60390  0.80812  0.41250  1.0000
  H   H221      1.0  0.59401  0.81107  0.46006  1.0000
  C   C296      1.0  0.63952  0.84081  0.48968  1.0000
  H   H222      1.0  0.65874  0.85307  0.48314  1.0000
  H   H223      1.0  0.63614  0.83193  0.55564  1.0000
  H   H224      1.0  0.63091  0.85177  0.48833  1.0000
  C   C297      1.0  0.19064  0.81646  0.35032  1.0000
  C   C298      1.0  0.18747  0.79890  0.41660  1.0000
  C   C299      1.0  0.20168  0.78761  0.41249  1.0000
  H   H225      1.0  0.19873  0.77477  0.46004  1.0000
  C   C300      1.0  0.16900  0.79055  0.48966  1.0000
  H   H226      1.0  0.15673  0.79751  0.48312  1.0000
  H   H227      1.0  0.17787  0.79603  0.55563  1.0000
  H   H228      1.0  0.15803  0.77097  0.48829  1.0000
  C   C301      1.0  0.82517  0.63508  0.35032  1.0000
  C   C302      1.0  0.80762  0.62068  0.41661  1.0000
  C   C303      1.0  0.79633  0.59519  0.41248  1.0000
  H   H229      1.0  0.78349  0.58529  0.46004  1.0000
  C   C304      1.0  0.79927  0.63081  0.48969  1.0000
  H   H230      1.0  0.80623  0.65003  0.48316  1.0000
  H   H231      1.0  0.80475  0.62742  0.55565  1.0000
  H   H232      1.0  0.77969  0.62220  0.48834  1.0000
  C   C305      1.0  0.37474  0.18192  0.35032  1.0000
  C   C306      1.0  0.38913  0.17875  0.41660  1.0000
  C   C307      1.0  0.41463  0.19295  0.41247  1.0000
  H   H233      1.0  0.42452  0.19000  0.46003  1.0000
  C   C308      1.0  0.37900  0.16028  0.48966  1.0000
  H   H234      1.0  0.35978  0.14802  0.48314  1.0000
  H   H235      1.0  0.38239  0.16915  0.55563  1.0000
  H   H236      1.0  0.38761  0.14931  0.48831  1.0000
  C   C309      1.0  0.82788  0.18463  0.35032  1.0000
  C   C310      1.0  0.83105  0.20220  0.41659  1.0000
  C   C311      1.0  0.81684  0.21349  0.41246  1.0000
  H   H237      1.0  0.81979  0.22633  0.46001  1.0000
  C   C312      1.0  0.84952  0.21055  0.48964  1.0000
  H   H238      1.0  0.86179  0.20359  0.48310  1.0000
  H   H239      1.0  0.84066  0.20507  0.55561  1.0000
  H   H240      1.0  0.86049  0.23013  0.48826  1.0000
  C   C313      1.0  0.19123  0.20967  0.36043  1.0000
  C   C314      1.0  0.18688  0.19093  0.42288  1.0000
  C   C315      1.0  0.20078  0.17932  0.41786  1.0000
  H   H241      1.0  0.19699  0.16564  0.46256  1.0000
  C   C316      1.0  0.16754  0.18176  0.49273  1.0000
  H   H242      1.0  0.15587  0.18944  0.48759  1.0000
  H   H243      1.0  0.17561  0.18572  0.56032  1.0000
  H   H244      1.0  0.15611  0.16232  0.48590  1.0000
  C   C317      1.0  0.80014  0.97339  0.36044  1.0000
  C   C318      1.0  0.81887  0.98777  0.42291  1.0000
  C   C319      1.0  0.83048  0.01328  0.41790  1.0000
  H   H245      1.0  0.84415  0.02316  0.46261  1.0000
  C   C320      1.0  0.82803  0.97760  0.49278  1.0000
  H   H246      1.0  0.82035  0.95825  0.48764  1.0000
  H   H247      1.0  0.82407  0.98171  0.56036  1.0000
  H   H248      1.0  0.84748  0.98561  0.48597  1.0000
  C   C321      1.0  0.03642  0.81858  0.36044  1.0000
  C   C322      1.0  0.02204  0.82293  0.42293  1.0000
  C   C323      1.0  0.99653  0.80904  0.41790  1.0000
  H   H249      1.0  0.98665  0.81283  0.46262  1.0000
  C   C324      1.0  0.03221  0.84227  0.49281  1.0000
  H   H250      1.0  0.05156  0.85394  0.48767  1.0000
  H   H251      1.0  0.02810  0.83419  0.56037  1.0000
  H   H252      1.0  0.02420  0.85370  0.48601  1.0000
  C   C325      1.0  0.82729  0.79142  0.36046  1.0000
  C   C326      1.0  0.83166  0.81016  0.42291  1.0000
  C   C327      1.0  0.81776  0.82178  0.41789  1.0000
  H   H253      1.0  0.82155  0.83545  0.46259  1.0000
  C   C328      1.0  0.85100  0.81933  0.49274  1.0000
  H   H254      1.0  0.86267  0.81165  0.48759  1.0000
  H   H255      1.0  0.84293  0.81538  0.56033  1.0000
  H   H256      1.0  0.86243  0.83878  0.48589  1.0000
  C   C329      1.0  0.21839  0.02770  0.36043  1.0000
  C   C330      1.0  0.19965  0.01333  0.42287  1.0000
  C   C331      1.0  0.18803  0.98782  0.41786  1.0000
  H   H257      1.0  0.17436  0.97794  0.46253  1.0000
  C   C332      1.0  0.19048  0.02350  0.49269  1.0000
  H   H258      1.0  0.19816  0.04285  0.48755  1.0000
  H   H259      1.0  0.19442  0.01939  0.56029  1.0000
  H   H260      1.0  0.17103  0.01549  0.48582  1.0000
  C   C333      1.0  0.98211  0.18251  0.36045  1.0000
  C   C334      1.0  0.99648  0.17814  0.42288  1.0000
  C   C335      1.0  0.02199  0.19204  0.41787  1.0000
  H   H261      1.0  0.03188  0.18824  0.46255  1.0000
  C   C336      1.0  0.98631  0.15880  0.49270  1.0000
  H   H262      1.0  0.96696  0.14713  0.48755  1.0000
  H   H263      1.0  0.99042  0.16686  0.56030  1.0000
  H   H264      1.0  0.99432  0.14737  0.48583  1.0000
  C   C337      1.0  0.24452  0.64067  0.36242  1.0000
  C   C338      1.0  0.24396  0.62644  0.43782  1.0000
  C   C339      1.0  0.24484  0.60507  0.42256  1.0000
  H   H265      1.0  0.24612  0.59618  0.47807  1.0000
  C   C340      1.0  0.24152  0.63199  0.53414  1.0000
  H   H266      1.0  0.23635  0.64568  0.54079  1.0000
  H   H267      1.0  0.25847  0.63800  0.56982  1.0000
  H   H268      1.0  0.22754  0.61595  0.56802  1.0000
  C   C341      1.0  0.36913  0.59566  0.36240  1.0000
  C   C342      1.0  0.38337  0.60933  0.43780  1.0000
  C   C343      1.0  0.40474  0.63156  0.42255  1.0000
  H   H269      1.0  0.41364  0.64173  0.47805  1.0000
  C   C344      1.0  0.37783  0.60132  0.53412  1.0000
  H   H270      1.0  0.36414  0.58246  0.54077  1.0000
  H   H271      1.0  0.37182  0.61226  0.56984  1.0000
  H   H272      1.0  0.39388  0.60338  0.56796  1.0000
  C   C345      1.0  0.41414  0.76529  0.36235  1.0000
  C   C346      1.0  0.40046  0.76586  0.43775  1.0000
  C   C347      1.0  0.37823  0.76499  0.42250  1.0000
  H   H273      1.0  0.36806  0.76372  0.47801  1.0000
  C   C348      1.0  0.40847  0.76832  0.53408  1.0000
  H   H274      1.0  0.42733  0.77350  0.54072  1.0000
  H   H275      1.0  0.39753  0.75137  0.56977  1.0000
  H   H276      1.0  0.40640  0.78230  0.56793  1.0000
  C   C349      1.0  0.77404  0.36042  0.36242  1.0000
  C   C350      1.0  0.77460  0.37466  0.43781  1.0000
  C   C351      1.0  0.77373  0.39602  0.42255  1.0000
  H   H277      1.0  0.77245  0.40492  0.47805  1.0000
  C   C352      1.0  0.77707  0.36912  0.53413  1.0000
  H   H278      1.0  0.78225  0.35544  0.54077  1.0000
  H   H279      1.0  0.76013  0.36311  0.56985  1.0000
  H   H280      1.0  0.79105  0.38517  0.56797  1.0000
  C   C353      1.0  0.64937  0.40543  0.36233  1.0000
  C   C354      1.0  0.63514  0.39175  0.43775  1.0000
  C   C355      1.0  0.61377  0.36951  0.42251  1.0000
  H   H281      1.0  0.60489  0.35934  0.47803  1.0000
  C   C356      1.0  0.64069  0.39976  0.53406  1.0000
  H   H282      1.0  0.65438  0.41862  0.54069  1.0000
  H   H283      1.0  0.64671  0.38883  0.56975  1.0000
  H   H284      1.0  0.62464  0.39769  0.56794  1.0000
  C   C357      1.0  0.60436  0.23573  0.36236  1.0000
  C   C358      1.0  0.61804  0.23517  0.43777  1.0000
  C   C359      1.0  0.64028  0.23606  0.42253  1.0000
  H   H285      1.0  0.65046  0.23735  0.47804  1.0000
  C   C360      1.0  0.61003  0.23271  0.53409  1.0000
  H   H286      1.0  0.59117  0.22753  0.54073  1.0000
  H   H287      1.0  0.62096  0.24966  0.56979  1.0000
  H   H288      1.0  0.61210  0.21873  0.56794  1.0000
