data_image0
_chemical_formula_structural       C8H3NO2C8H3NO2C8H3NO2C8H3NO2C2HC2H2NO2C2HC2H2NO2C2HC2H2NO2C2HC2H2NO2C2HC2H2NO2C2HC2H2NO2C2HC2H2NO2C2HC2H2NO2C8H3NO2C8H3NO2C8H3NO2C8H3NO2C8H3NO2C8H3NO2C8H3NO2C8H3NO2C2HC2H2NO2C2HC2H2NO2C2HC2H2NO2C2HC2H2NO2C2HC2H2NO2C2HC2H2NO2C2HC2H2NO2C2HC2H2NO2C2HC2H2NO2C2HC2H2NO2C6H3C6H3C6H3C6H3C6H3C6H3C6H3C6H3C6H3C6H3C6H3C6H3C6H3C6H3C6H3C6H3C6H3C6H3C6H3C6H3C2HC2H2NO2C2HC2H2NO2C2HC2H2NO2C2HC2H2NO2C8H3NO2C8H3NO2C8H3NO2C8H3NO2C8H3NO2C8H3NO2C8H3NO2C8H3NO2C2HC2H2NO2C2HC2H2NO2C2HC2H2NO2C2HC2H2NO2C2HC2H2NO2C2HC2H2NO2C2HC2H2NO2C2HC2H2NO2C8H3NO2C8H3NO2C8H3NO2C8H3NO2C8H3NO2C8H3NO2C8H3NO2C8H3NO2C8H3NO2C8H3NO2
_chemical_formula_sum              "C480 H240 N60 O120"
_cell_length_a       66.4534
_cell_length_b       66.4534
_cell_length_c       14.8965
_cell_angle_alpha    90
_cell_angle_beta     90
_cell_angle_gamma    90

_space_group_name_H-M_alt    "P 1"
_space_group_IT_number       1

loop_
  _space_group_symop_operation_xyz
  'x, y, z'

loop_
  _atom_site_type_symbol
  _atom_site_label
  _atom_site_symmetry_multiplicity
  _atom_site_fract_x
  _atom_site_fract_y
  _atom_site_fract_z
  _atom_site_occupancy
  C   C1        1.0  0.29025  0.03508  0.34818  1.0000
  C   C2        1.0  0.30363  0.02495  0.28989  1.0000
  C   C3        1.0  0.32429  0.02951  0.29002  1.0000
  C   C4        1.0  0.33209  0.04413  0.34930  1.0000
  C   C5        1.0  0.35277  0.04920  0.34461  1.0000
  C   C6        1.0  0.36002  0.06301  0.27966  1.0000
  C   C7        1.0  0.38063  0.06839  0.28045  1.0000
  C   C8        1.0  0.39411  0.06024  0.34426  1.0000
  H   H1        1.0  0.38581  0.07825  0.23298  1.0000
  H   H2        1.0  0.29834  0.01473  0.24427  1.0000
  H   H3        1.0  0.33354  0.02229  0.24544  1.0000
  N   N1        1.0  0.34652  0.07132  0.21614  1.0000
  O   O1        1.0  0.35164  0.06695  0.13731  1.0000
  O   O2        1.0  0.34557  0.09014  0.22322  1.0000
  C   C9        1.0  0.71678  0.97197  0.35154  1.0000
  C   C10       1.0  0.70335  0.98208  0.29336  1.0000
  C   C11       1.0  0.68270  0.97749  0.29369  1.0000
  C   C12       1.0  0.67495  0.96286  0.35307  1.0000
  C   C13       1.0  0.65429  0.95769  0.34816  1.0000
  C   C14       1.0  0.64713  0.94403  0.28238  1.0000
  C   C15       1.0  0.62653  0.93860  0.28259  1.0000
  C   C16       1.0  0.61297  0.94655  0.34660  1.0000
  H   H4        1.0  0.62141  0.92888  0.23444  1.0000
  H   H5        1.0  0.70861  0.99229  0.24761  1.0000
  H   H6        1.0  0.67343  0.98467  0.24910  1.0000
  N   N2        1.0  0.66069  0.93592  0.21859  1.0000
  O   O3        1.0  0.65562  0.94049  0.13993  1.0000
  O   O4        1.0  0.66168  0.91709  0.22469  1.0000
  C   C17       1.0  0.97191  0.29030  0.34824  1.0000
  C   C18       1.0  0.98203  0.30368  0.28993  1.0000
  C   C19       1.0  0.97746  0.32434  0.29007  1.0000
  C   C20       1.0  0.96284  0.33214  0.34938  1.0000
  C   C21       1.0  0.95776  0.35281  0.34468  1.0000
  C   C22       1.0  0.94395  0.36005  0.27972  1.0000
  C   C23       1.0  0.93855  0.38066  0.28052  1.0000
  C   C24       1.0  0.94669  0.39415  0.34432  1.0000
  H   H7        1.0  0.92869  0.38583  0.23303  1.0000
  H   H8        1.0  0.99225  0.29840  0.24429  1.0000
  H   H9        1.0  0.98467  0.33359  0.24548  1.0000
  N   N3        1.0  0.93564  0.34654  0.21621  1.0000
  O   O5        1.0  0.94001  0.35166  0.13738  1.0000
  O   O6        1.0  0.91683  0.34558  0.22329  1.0000
  C   C25       1.0  0.03501  0.71683  0.35146  1.0000
  C   C26       1.0  0.02490  0.70341  0.29330  1.0000
  C   C27       1.0  0.02947  0.68276  0.29363  1.0000
  C   C28       1.0  0.04410  0.67499  0.35300  1.0000
  C   C29       1.0  0.04926  0.65433  0.34809  1.0000
  C   C30       1.0  0.06291  0.64716  0.28232  1.0000
  C   C31       1.0  0.06833  0.62656  0.28254  1.0000
  C   C32       1.0  0.06038  0.61301  0.34655  1.0000
  H   H10       1.0  0.07806  0.62143  0.23440  1.0000
  H   H11       1.0  0.01469  0.70867  0.24755  1.0000
  H   H12       1.0  0.02229  0.67349  0.24904  1.0000
  N   N4        1.0  0.07103  0.66072  0.21853  1.0000
  O   O7        1.0  0.06646  0.65565  0.13986  1.0000
  O   O8        1.0  0.08986  0.66170  0.22463  1.0000
  C   C33       1.0  0.18774  0.55389  0.27059  1.0000
  C   C34       1.0  0.20849  0.54915  0.27171  1.0000
  H   H13       1.0  0.21787  0.55652  0.22821  1.0000
  C   C35       1.0  0.12009  0.54672  0.27445  1.0000
  C   C36       1.0  0.14051  0.54126  0.27271  1.0000
  H   H14       1.0  0.11069  0.54091  0.22664  1.0000
  H   H15       1.0  0.14543  0.53153  0.22417  1.0000
  N   N5        1.0  0.17990  0.56871  0.21185  1.0000
  O   O9        1.0  0.18282  0.56405  0.13116  1.0000
  O   O10       1.0  0.18768  0.58563  0.22644  1.0000
  C   C37       1.0  0.81923  0.45301  0.27441  1.0000
  C   C38       1.0  0.79846  0.45774  0.27526  1.0000
  H   H16       1.0  0.78912  0.45035  0.23170  1.0000
  C   C39       1.0  0.88687  0.46067  0.27874  1.0000
  C   C40       1.0  0.86644  0.46609  0.27728  1.0000
  H   H17       1.0  0.89628  0.46670  0.23144  1.0000
  H   H18       1.0  0.86151  0.47600  0.22946  1.0000
  N   N6        1.0  0.82710  0.43818  0.21586  1.0000
  O   O11       1.0  0.82422  0.44281  0.13509  1.0000
  O   O12       1.0  0.81933  0.42126  0.23050  1.0000
  C   C41       1.0  0.55387  0.81917  0.27062  1.0000
  C   C42       1.0  0.54912  0.79841  0.27177  1.0000
  H   H19       1.0  0.55649  0.78904  0.22827  1.0000
  C   C43       1.0  0.54670  0.88682  0.27443  1.0000
  C   C44       1.0  0.54124  0.86640  0.27270  1.0000
  H   H20       1.0  0.54088  0.89622  0.22662  1.0000
  H   H21       1.0  0.53151  0.86148  0.22416  1.0000
  N   N7        1.0  0.56868  0.82700  0.21187  1.0000
  O   O13       1.0  0.56402  0.82408  0.13118  1.0000
  O   O14       1.0  0.58561  0.81922  0.22646  1.0000
  C   C45       1.0  0.45298  0.18769  0.27443  1.0000
  C   C46       1.0  0.45771  0.20845  0.27527  1.0000
  H   H22       1.0  0.45031  0.21780  0.23172  1.0000
  C   C47       1.0  0.46065  0.12005  0.27877  1.0000
  C   C48       1.0  0.46606  0.14048  0.27731  1.0000
  H   H23       1.0  0.46668  0.11064  0.23147  1.0000
  H   H24       1.0  0.47598  0.14541  0.22950  1.0000
  N   N8        1.0  0.43814  0.17981  0.21592  1.0000
  O   O15       1.0  0.44276  0.18270  0.13514  1.0000
  O   O16       1.0  0.42122  0.18758  0.23058  1.0000
  C   C49       1.0  0.21674  0.09636  0.25401  1.0000
  C   C50       1.0  0.22600  0.07714  0.25352  1.0000
  H   H25       1.0  0.23634  0.07401  0.20453  1.0000
  C   C51       1.0  0.17308  0.14783  0.27318  1.0000
  C   C52       1.0  0.18030  0.12791  0.27094  1.0000
  H   H26       1.0  0.16252  0.15209  0.22693  1.0000
  H   H27       1.0  0.17469  0.11825  0.22364  1.0000
  N   N9        1.0  0.22162  0.11097  0.18829  1.0000
  O   O17       1.0  0.21729  0.10492  0.11075  1.0000
  O   O18       1.0  0.23999  0.11545  0.19050  1.0000
  C   C53       1.0  0.79015  0.91072  0.25529  1.0000
  C   C54       1.0  0.78091  0.92994  0.25511  1.0000
  H   H28       1.0  0.77052  0.93310  0.20634  1.0000
  C   C55       1.0  0.83384  0.85921  0.27375  1.0000
  C   C56       1.0  0.82663  0.87914  0.27167  1.0000
  H   H29       1.0  0.84441  0.85497  0.22750  1.0000
  H   H30       1.0  0.83226  0.88882  0.22448  1.0000
  N   N10       1.0  0.78521  0.89613  0.18957  1.0000
  O   O19       1.0  0.78948  0.90220  0.11199  1.0000
  O   O20       1.0  0.76684  0.89166  0.19208  1.0000
  C   C57       1.0  0.91065  0.21679  0.25396  1.0000
  C   C58       1.0  0.92988  0.22604  0.25347  1.0000
  H   H31       1.0  0.93302  0.23638  0.20446  1.0000
  C   C59       1.0  0.85916  0.17314  0.27328  1.0000
  C   C60       1.0  0.87909  0.18036  0.27101  1.0000
  H   H32       1.0  0.85491  0.16257  0.22709  1.0000
  H   H33       1.0  0.88875  0.17473  0.22374  1.0000
  N   N11       1.0  0.89605  0.22166  0.18820  1.0000
  O   O21       1.0  0.90211  0.21732  0.11068  1.0000
  O   O22       1.0  0.89158  0.24003  0.19035  1.0000
  C   C61       1.0  0.09630  0.79020  0.25538  1.0000
  C   C62       1.0  0.07708  0.78095  0.25521  1.0000
  H   H34       1.0  0.07393  0.77054  0.20648  1.0000
  C   C63       1.0  0.14779  0.83391  0.27365  1.0000
  C   C64       1.0  0.12785  0.82670  0.27162  1.0000
  H   H35       1.0  0.15202  0.84446  0.22735  1.0000
  H   H36       1.0  0.11818  0.83231  0.22439  1.0000
  N   N12       1.0  0.11090  0.78524  0.18970  1.0000
  O   O23       1.0  0.10483  0.78949  0.11210  1.0000
  O   O24       1.0  0.11537  0.76688  0.19232  1.0000
  C   C65       1.0  0.28449  0.56245  0.35902  1.0000
  C   C66       1.0  0.29848  0.56748  0.29124  1.0000
  C   C67       1.0  0.30776  0.58657  0.28975  1.0000
  C   C68       1.0  0.30352  0.60114  0.35643  1.0000
  C   C69       1.0  0.31159  0.62101  0.34892  1.0000
  C   C70       1.0  0.30394  0.63500  0.28542  1.0000
  C   C71       1.0  0.31123  0.65507  0.28528  1.0000
  C   C72       1.0  0.32606  0.66170  0.34674  1.0000
  H   H37       1.0  0.30557  0.66496  0.23901  1.0000
  H   H38       1.0  0.30105  0.55779  0.23912  1.0000
  H   H39       1.0  0.31718  0.59002  0.23761  1.0000
  N   N13       1.0  0.28877  0.62879  0.22468  1.0000
  O   O25       1.0  0.29449  0.63059  0.14468  1.0000
  O   O26       1.0  0.27287  0.63875  0.23520  1.0000
  C   C73       1.0  0.72236  0.44457  0.36062  1.0000
  C   C74       1.0  0.70851  0.43950  0.29230  1.0000
  C   C75       1.0  0.69924  0.42040  0.29054  1.0000
  C   C76       1.0  0.70335  0.40586  0.35745  1.0000
  C   C77       1.0  0.69528  0.38598  0.34976  1.0000
  C   C78       1.0  0.70295  0.37201  0.28624  1.0000
  C   C79       1.0  0.69566  0.35194  0.28594  1.0000
  C   C80       1.0  0.68081  0.34529  0.34725  1.0000
  H   H40       1.0  0.70134  0.34207  0.23967  1.0000
  H   H41       1.0  0.70605  0.44918  0.24002  1.0000
  H   H42       1.0  0.68992  0.41694  0.23806  1.0000
  N   N14       1.0  0.71815  0.37823  0.22566  1.0000
  O   O27       1.0  0.71247  0.37645  0.14560  1.0000
  O   O28       1.0  0.73404  0.36826  0.23627  1.0000
  C   C81       1.0  0.56240  0.72241  0.35911  1.0000
  C   C82       1.0  0.56746  0.70845  0.29122  1.0000
  C   C83       1.0  0.58656  0.69918  0.28972  1.0000
  C   C84       1.0  0.60111  0.70341  0.35647  1.0000
  C   C85       1.0  0.62099  0.69534  0.34898  1.0000
  C   C86       1.0  0.63497  0.70299  0.28549  1.0000
  C   C87       1.0  0.65505  0.69570  0.28536  1.0000
  C   C88       1.0  0.66168  0.68087  0.34683  1.0000
  H   H43       1.0  0.66493  0.70135  0.23909  1.0000
  H   H44       1.0  0.55778  0.70590  0.23906  1.0000
  H   H45       1.0  0.59002  0.68978  0.23753  1.0000
  N   N15       1.0  0.62876  0.71815  0.22474  1.0000
  O   O29       1.0  0.63057  0.71244  0.14473  1.0000
  O   O30       1.0  0.63873  0.73406  0.23524  1.0000
  C   C89       1.0  0.44453  0.28456  0.36057  1.0000
  C   C90       1.0  0.43946  0.29841  0.29226  1.0000
  C   C91       1.0  0.42037  0.30769  0.29050  1.0000
  C   C92       1.0  0.40582  0.30357  0.35740  1.0000
  C   C93       1.0  0.38595  0.31164  0.34970  1.0000
  C   C94       1.0  0.37198  0.30397  0.28619  1.0000
  C   C95       1.0  0.35191  0.31126  0.28587  1.0000
  C   C96       1.0  0.34526  0.32612  0.34715  1.0000
  H   H46       1.0  0.34203  0.30559  0.23959  1.0000
  H   H47       1.0  0.44915  0.30088  0.23999  1.0000
  H   H48       1.0  0.41691  0.31701  0.23803  1.0000
  N   N16       1.0  0.37820  0.28877  0.22563  1.0000
  O   O31       1.0  0.37642  0.29445  0.14556  1.0000
  O   O32       1.0  0.36823  0.27288  0.23625  1.0000
  C   C97       1.0  0.21109  0.88249  0.34134  1.0000
  C   C98       1.0  0.22579  0.89118  0.28456  1.0000
  C   C99       1.0  0.22934  0.91210  0.28421  1.0000
  C   C100      1.0  0.21847  0.92514  0.34143  1.0000
  C   C101      1.0  0.22277  0.94626  0.34092  1.0000
  C   C102      1.0  0.21742  0.95894  0.26791  1.0000
  C   C103      1.0  0.22234  0.97975  0.27075  1.0000
  C   C104      1.0  0.23285  0.98822  0.34412  1.0000
  H   H49       1.0  0.21890  0.98860  0.21665  1.0000
  H   H50       1.0  0.23382  0.88236  0.24114  1.0000
  H   H51       1.0  0.24010  0.91774  0.24196  1.0000
  N   N17       1.0  0.20724  0.95052  0.19339  1.0000
  O   O33       1.0  0.21732  0.95247  0.12254  1.0000
  O   O34       1.0  0.19032  0.95858  0.18219  1.0000
  C   C105      1.0  0.79592  0.12457  0.34188  1.0000
  C   C106      1.0  0.78120  0.11584  0.28527  1.0000
  C   C107      1.0  0.77767  0.09492  0.28515  1.0000
  C   C108      1.0  0.78856  0.08191  0.34242  1.0000
  C   C109      1.0  0.78427  0.06080  0.34217  1.0000
  C   C110      1.0  0.78960  0.04807  0.26930  1.0000
  C   C111      1.0  0.78467  0.02727  0.27239  1.0000
  C   C112      1.0  0.77417  0.01884  0.34589  1.0000
  H   H52       1.0  0.78809  0.01838  0.21837  1.0000
  H   H53       1.0  0.77316  0.12464  0.24183  1.0000
  H   H54       1.0  0.76690  0.08925  0.24303  1.0000
  N   N18       1.0  0.79976  0.05645  0.19464  1.0000
  O   O35       1.0  0.78967  0.05446  0.12384  1.0000
  O   O36       1.0  0.81668  0.04838  0.18348  1.0000
  C   C113      1.0  0.12451  0.21111  0.34128  1.0000
  C   C114      1.0  0.11581  0.22582  0.28453  1.0000
  C   C115      1.0  0.09490  0.22937  0.28419  1.0000
  C   C116      1.0  0.08185  0.21850  0.34140  1.0000
  C   C117      1.0  0.06074  0.22280  0.34091  1.0000
  C   C118      1.0  0.04805  0.21743  0.26795  1.0000
  C   C119      1.0  0.02725  0.22237  0.27077  1.0000
  C   C120      1.0  0.01879  0.23291  0.34409  1.0000
  H   H55       1.0  0.01839  0.21891  0.21671  1.0000
  H   H56       1.0  0.12464  0.23385  0.24112  1.0000
  H   H57       1.0  0.08926  0.24013  0.24197  1.0000
  N   N19       1.0  0.05647  0.20723  0.19347  1.0000
  O   O37       1.0  0.05452  0.21729  0.12257  1.0000
  O   O38       1.0  0.04840  0.19032  0.18239  1.0000
  C   C121      1.0  0.88243  0.79594  0.34192  1.0000
  C   C122      1.0  0.89116  0.78123  0.28530  1.0000
  C   C123      1.0  0.91208  0.77770  0.28516  1.0000
  C   C124      1.0  0.92509  0.78859  0.34244  1.0000
  C   C125      1.0  0.94620  0.78430  0.34217  1.0000
  C   C126      1.0  0.95892  0.78961  0.26923  1.0000
  C   C127      1.0  0.97973  0.78469  0.27233  1.0000
  C   C128      1.0  0.98817  0.77424  0.34592  1.0000
  H   H58       1.0  0.98860  0.78810  0.21827  1.0000
  H   H59       1.0  0.88236  0.77319  0.24184  1.0000
  H   H60       1.0  0.91775  0.76693  0.24303  1.0000
  N   N20       1.0  0.95053  0.79974  0.19449  1.0000
  O   O39       1.0  0.95252  0.78962  0.12379  1.0000
  O   O40       1.0  0.95859  0.81665  0.18318  1.0000
  C   C129      1.0  0.30293  0.41636  0.28418  1.0000
  C   C130      1.0  0.30655  0.39532  0.28610  1.0000
  H   H61       1.0  0.31688  0.38946  0.24235  1.0000
  C   C131      1.0  0.26847  0.47481  0.26732  1.0000
  C   C132      1.0  0.27365  0.45428  0.26932  1.0000
  H   H62       1.0  0.26043  0.48012  0.21369  1.0000
  H   H63       1.0  0.26923  0.44529  0.21712  1.0000
  N   N21       1.0  0.31371  0.42912  0.22515  1.0000
  O   O41       1.0  0.31069  0.42443  0.14455  1.0000
  O   O42       1.0  0.33229  0.42849  0.24053  1.0000
  C   C133      1.0  0.70405  0.59061  0.28484  1.0000
  C   C134      1.0  0.70043  0.61166  0.28656  1.0000
  H   H64       1.0  0.69011  0.61749  0.24269  1.0000
  C   C135      1.0  0.73857  0.53216  0.26894  1.0000
  C   C136      1.0  0.73338  0.55269  0.27068  1.0000
  H   H65       1.0  0.74665  0.52683  0.21553  1.0000
  H   H66       1.0  0.73786  0.56166  0.21850  1.0000
  N   N22       1.0  0.69330  0.57782  0.22585  1.0000
  O   O43       1.0  0.69634  0.58248  0.14523  1.0000
  O   O44       1.0  0.67471  0.57846  0.24109  1.0000
  C   C137      1.0  0.41632  0.70401  0.28415  1.0000
  C   C138      1.0  0.39527  0.70040  0.28603  1.0000
  H   H67       1.0  0.38942  0.69008  0.24226  1.0000
  C   C139      1.0  0.47477  0.73847  0.26737  1.0000
  C   C140      1.0  0.45424  0.73329  0.26936  1.0000
  H   H68       1.0  0.48007  0.74651  0.21376  1.0000
  H   H69       1.0  0.44525  0.73771  0.21716  1.0000
  N   N23       1.0  0.42908  0.69324  0.22513  1.0000
  O   O45       1.0  0.42439  0.69626  0.14452  1.0000
  O   O46       1.0  0.42844  0.67466  0.24049  1.0000
  C   C141      1.0  0.59057  0.30290  0.28487  1.0000
  C   C142      1.0  0.61162  0.30652  0.28661  1.0000
  H   H70       1.0  0.61745  0.31684  0.24277  1.0000
  C   C143      1.0  0.53212  0.26837  0.26892  1.0000
  C   C144      1.0  0.55265  0.27356  0.27066  1.0000
  H   H71       1.0  0.52680  0.26028  0.21550  1.0000
  H   H72       1.0  0.56162  0.26908  0.21849  1.0000
  N   N24       1.0  0.57778  0.31364  0.22587  1.0000
  O   O47       1.0  0.58244  0.31060  0.14526  1.0000
  O   O48       1.0  0.57841  0.33223  0.24112  1.0000
  C   C145      1.0  0.23984  0.29830  0.28618  1.0000
  C   C146      1.0  0.25549  0.31286  0.28865  1.0000
  H   H73       1.0  0.25486  0.32469  0.24480  1.0000
  C   C147      1.0  0.21026  0.23666  0.27200  1.0000
  C   C148      1.0  0.22474  0.25214  0.27367  1.0000
  H   H74       1.0  0.21045  0.22665  0.21980  1.0000
  H   H75       1.0  0.23513  0.25283  0.22305  1.0000
  N   N25       1.0  0.22334  0.30031  0.22674  1.0000
  O   O49       1.0  0.22904  0.30040  0.14630  1.0000
  O   O50       1.0  0.21367  0.31619  0.24196  1.0000
  C   C149      1.0  0.76712  0.70870  0.28629  1.0000
  C   C150      1.0  0.75147  0.69414  0.28875  1.0000
  H   H76       1.0  0.75210  0.68229  0.24495  1.0000
  C   C151      1.0  0.79668  0.77036  0.27215  1.0000
  C   C152      1.0  0.78220  0.75487  0.27377  1.0000
  H   H77       1.0  0.79649  0.78038  0.21998  1.0000
  H   H78       1.0  0.77181  0.75420  0.22315  1.0000
  N   N26       1.0  0.78362  0.70668  0.22692  1.0000
  O   O51       1.0  0.77795  0.70657  0.14646  1.0000
  O   O52       1.0  0.79330  0.69080  0.24224  1.0000
  C   C153      1.0  0.70867  0.23987  0.28634  1.0000
  C   C154      1.0  0.69411  0.25552  0.28883  1.0000
  H   H79       1.0  0.68227  0.25488  0.24500  1.0000
  C   C155      1.0  0.77033  0.21031  0.27215  1.0000
  C   C156      1.0  0.75484  0.22478  0.27380  1.0000
  H   H80       1.0  0.78034  0.21050  0.21995  1.0000
  H   H81       1.0  0.75415  0.23517  0.22317  1.0000
  N   N27       1.0  0.70666  0.22337  0.22693  1.0000
  O   O53       1.0  0.70656  0.22906  0.14648  1.0000
  O   O54       1.0  0.69078  0.21369  0.24220  1.0000
  C   C157      1.0  0.29827  0.76714  0.28613  1.0000
  C   C158      1.0  0.31282  0.75149  0.28858  1.0000
  H   H82       1.0  0.32466  0.75212  0.24475  1.0000
  C   C159      1.0  0.23663  0.79673  0.27198  1.0000
  C   C160      1.0  0.25211  0.78225  0.27362  1.0000
  H   H83       1.0  0.22662  0.79655  0.21980  1.0000
  H   H84       1.0  0.25279  0.77186  0.22298  1.0000
  N   N28       1.0  0.30029  0.78365  0.22674  1.0000
  O   O55       1.0  0.30038  0.77797  0.14629  1.0000
  O   O56       1.0  0.31617  0.79332  0.24204  1.0000
  C   C161      1.0  0.52762  0.99763  0.28423  1.0000
  C   C162      1.0  0.54253  0.98242  0.28495  1.0000
  H   H85       1.0  0.55426  0.98348  0.24068  1.0000
  C   C163      1.0  0.46577  0.02574  0.28049  1.0000
  C   C164      1.0  0.48087  0.01095  0.28064  1.0000
  H   H86       1.0  0.45509  0.02540  0.23103  1.0000
  H   H87       1.0  0.48071  0.00011  0.23182  1.0000
  N   N29       1.0  0.52898  0.01436  0.22568  1.0000
  O   O57       1.0  0.52896  0.00892  0.14490  1.0000
  O   O58       1.0  0.54463  0.02443  0.24052  1.0000
  C   C165      1.0  0.00928  0.52766  0.28423  1.0000
  C   C166      1.0  0.02449  0.54256  0.28495  1.0000
  H   H88       1.0  0.02344  0.55429  0.24067  1.0000
  C   C167      1.0  0.98117  0.46581  0.28049  1.0000
  C   C168      1.0  0.99596  0.48091  0.28063  1.0000
  H   H89       1.0  0.98151  0.45513  0.23101  1.0000
  H   H90       1.0  0.00680  0.48075  0.23181  1.0000
  N   N30       1.0  0.99255  0.52901  0.22566  1.0000
  O   O59       1.0  0.99800  0.52899  0.14489  1.0000
  O   O60       1.0  0.98248  0.54467  0.24046  1.0000
  C   C169      1.0  0.26912  0.03162  0.34360  1.0000
  C   C170      1.0  0.25572  0.04800  0.33498  1.0000
  C   C171      1.0  0.23467  0.04523  0.32884  1.0000
  C   C172      1.0  0.22700  0.02532  0.33259  1.0000
  C   C173      1.0  0.24004  0.00849  0.34142  1.0000
  C   C174      1.0  0.26103  0.01198  0.34620  1.0000
  H   H91       1.0  0.21179  0.02305  0.32877  1.0000
  H   H92       1.0  0.27065  0.99999  0.35213  1.0000
  H   H93       1.0  0.26147  0.06230  0.33265  1.0000
  C   C175      1.0  0.73791  0.97543  0.34654  1.0000
  C   C176      1.0  0.75129  0.95906  0.33759  1.0000
  C   C177      1.0  0.77233  0.96182  0.33084  1.0000
  C   C178      1.0  0.78000  0.98174  0.33433  1.0000
  C   C179      1.0  0.76698  0.99856  0.34350  1.0000
  C   C180      1.0  0.74599  0.99507  0.34887  1.0000
  H   H94       1.0  0.79521  0.98400  0.33005  1.0000
  H   H95       1.0  0.73638  0.00706  0.35498  1.0000
  H   H96       1.0  0.74553  0.94475  0.33541  1.0000
  C   C181      1.0  0.97538  0.26917  0.34363  1.0000
  C   C182      1.0  0.95901  0.25577  0.33501  1.0000
  C   C183      1.0  0.96178  0.23472  0.32884  1.0000
  C   C184      1.0  0.98169  0.22706  0.33257  1.0000
  C   C185      1.0  0.99851  0.24010  0.34140  1.0000
  C   C186      1.0  0.99502  0.26109  0.34622  1.0000
  H   H97       1.0  0.98396  0.21185  0.32873  1.0000
  H   H98       1.0  0.00700  0.27071  0.35214  1.0000
  H   H99       1.0  0.94470  0.26152  0.33268  1.0000
  C   C187      1.0  0.03157  0.73796  0.34650  1.0000
  C   C188      1.0  0.04794  0.75134  0.33758  1.0000
  C   C189      1.0  0.04519  0.77238  0.33084  1.0000
  C   C190      1.0  0.02527  0.78006  0.33436  1.0000
  C   C191      1.0  0.00844  0.76704  0.34349  1.0000
  C   C192      1.0  0.01193  0.74605  0.34883  1.0000
  H   H100      1.0  0.02301  0.79526  0.33010  1.0000
  H   H101      1.0  0.99994  0.73645  0.35492  1.0000
  H   H102      1.0  0.06225  0.74558  0.33540  1.0000
  C   C193      1.0  0.23763  0.53132  0.33660  1.0000
  C   C194      1.0  0.25101  0.54771  0.34486  1.0000
  C   C195      1.0  0.27206  0.54496  0.35151  1.0000
  C   C196      1.0  0.27973  0.52504  0.34849  1.0000
  C   C197      1.0  0.26671  0.50819  0.33999  1.0000
  C   C198      1.0  0.24572  0.51168  0.33482  1.0000
  H   H103      1.0  0.29494  0.52280  0.35269  1.0000
  H   H104      1.0  0.23610  0.49968  0.32931  1.0000
  H   H105      1.0  0.24525  0.56202  0.34673  1.0000
  C   C199      1.0  0.76929  0.47564  0.33939  1.0000
  C   C200      1.0  0.75587  0.45927  0.34739  1.0000
  C   C201      1.0  0.73482  0.46204  0.35342  1.0000
  C   C202      1.0  0.72718  0.48196  0.35010  1.0000
  C   C203      1.0  0.74022  0.49879  0.34187  1.0000
  C   C204      1.0  0.76121  0.49529  0.33727  1.0000
  H   H106      1.0  0.71196  0.48422  0.35385  1.0000
  H   H107      1.0  0.77085  0.50728  0.33192  1.0000
  H   H108      1.0  0.76162  0.44495  0.34947  1.0000
  C   C205      1.0  0.53129  0.76928  0.33667  1.0000
  C   C206      1.0  0.54768  0.75590  0.34493  1.0000
  C   C207      1.0  0.54492  0.73485  0.35155  1.0000
  C   C208      1.0  0.52500  0.72719  0.34855  1.0000
  C   C209      1.0  0.50816  0.74021  0.34004  1.0000
  C   C210      1.0  0.51164  0.76120  0.33486  1.0000
  H   H109      1.0  0.52275  0.71198  0.35274  1.0000
  H   H110      1.0  0.49965  0.77082  0.32936  1.0000
  H   H111      1.0  0.56198  0.76165  0.34680  1.0000
  C   C211      1.0  0.47561  0.23763  0.33937  1.0000
  C   C212      1.0  0.45923  0.25104  0.34735  1.0000
  C   C213      1.0  0.46200  0.27210  0.35336  1.0000
  C   C214      1.0  0.48192  0.27975  0.35005  1.0000
  C   C215      1.0  0.49876  0.26670  0.34184  1.0000
  C   C216      1.0  0.49526  0.24571  0.33724  1.0000
  H   H112      1.0  0.48418  0.29496  0.35381  1.0000
  H   H113      1.0  0.50724  0.23608  0.33190  1.0000
  H   H114      1.0  0.44492  0.24530  0.34944  1.0000
  C   C217      1.0  0.18112  0.21897  0.33930  1.0000
  C   C218      1.0  0.18762  0.19869  0.33684  1.0000
  C   C219      1.0  0.17383  0.18244  0.33628  1.0000
  C   C220      1.0  0.15301  0.18699  0.33725  1.0000
  C   C221      1.0  0.14576  0.20706  0.34006  1.0000
  C   C222      1.0  0.16016  0.22283  0.34149  1.0000
  H   H115      1.0  0.14289  0.17538  0.33618  1.0000
  H   H116      1.0  0.15530  0.23745  0.34402  1.0000
  H   H117      1.0  0.20274  0.19570  0.33551  1.0000
  C   C223      1.0  0.82581  0.78805  0.33951  1.0000
  C   C224      1.0  0.81930  0.80833  0.33707  1.0000
  C   C225      1.0  0.83309  0.82459  0.33661  1.0000
  C   C226      1.0  0.85391  0.82004  0.33768  1.0000
  C   C227      1.0  0.86117  0.79998  0.34052  1.0000
  C   C228      1.0  0.84678  0.78420  0.34182  1.0000
  H   H118      1.0  0.86402  0.83166  0.33672  1.0000
  H   H119      1.0  0.85164  0.76958  0.34438  1.0000
  H   H120      1.0  0.80418  0.81131  0.33569  1.0000
  C   C229      1.0  0.78803  0.18118  0.33948  1.0000
  C   C230      1.0  0.80831  0.18769  0.33693  1.0000
  C   C231      1.0  0.82456  0.17391  0.33641  1.0000
  C   C232      1.0  0.82002  0.15308  0.33753  1.0000
  C   C233      1.0  0.79996  0.14583  0.34046  1.0000
  C   C234      1.0  0.78417  0.16021  0.34182  1.0000
  H   H121      1.0  0.83164  0.14297  0.33651  1.0000
  H   H122      1.0  0.76957  0.15535  0.34444  1.0000
  H   H123      1.0  0.81129  0.20281  0.33551  1.0000
  C   C235      1.0  0.21895  0.82587  0.33933  1.0000
  C   C236      1.0  0.19867  0.81937  0.33698  1.0000
  C   C237      1.0  0.18241  0.83316  0.33647  1.0000
  C   C238      1.0  0.18697  0.85398  0.33741  1.0000
  C   C239      1.0  0.20704  0.86123  0.34013  1.0000
  C   C240      1.0  0.22281  0.84684  0.34149  1.0000
  H   H124      1.0  0.17535  0.86410  0.33639  1.0000
  H   H125      1.0  0.23743  0.85169  0.34397  1.0000
  H   H126      1.0  0.19568  0.80425  0.33569  1.0000
  C   C241      1.0  0.32553  0.71875  0.34722  1.0000
  C   C242      1.0  0.31915  0.69839  0.34678  1.0000
  C   C243      1.0  0.33295  0.68215  0.34683  1.0000
  C   C244      1.0  0.35375  0.68673  0.34695  1.0000
  C   C245      1.0  0.36096  0.70681  0.34631  1.0000
  C   C246      1.0  0.34654  0.72256  0.34668  1.0000
  H   H127      1.0  0.36389  0.67513  0.34718  1.0000
  H   H128      1.0  0.35146  0.73716  0.34646  1.0000
  H   H129      1.0  0.30405  0.69529  0.34652  1.0000
  C   C247      1.0  0.68138  0.28824  0.34754  1.0000
  C   C248      1.0  0.68775  0.30860  0.34714  1.0000
  C   C249      1.0  0.67394  0.32483  0.34724  1.0000
  C   C250      1.0  0.65314  0.32023  0.34739  1.0000
  C   C251      1.0  0.64594  0.30015  0.34675  1.0000
  C   C252      1.0  0.66037  0.28441  0.34705  1.0000
  H   H130      1.0  0.64299  0.33183  0.34767  1.0000
  H   H131      1.0  0.65546  0.26981  0.34683  1.0000
  H   H132      1.0  0.70284  0.31171  0.34688  1.0000
  C   C253      1.0  0.71873  0.68143  0.34739  1.0000
  C   C254      1.0  0.69837  0.68780  0.34689  1.0000
  C   C255      1.0  0.68214  0.67399  0.34696  1.0000
  C   C256      1.0  0.68673  0.65319  0.34720  1.0000
  C   C257      1.0  0.70681  0.64599  0.34664  1.0000
  C   C258      1.0  0.72255  0.66041  0.34697  1.0000
  H   H133      1.0  0.67513  0.64304  0.34745  1.0000
  H   H134      1.0  0.73715  0.65550  0.34680  1.0000
  H   H135      1.0  0.69526  0.70289  0.34656  1.0000
  C   C259      1.0  0.28821  0.32558  0.34738  1.0000
  C   C260      1.0  0.30857  0.31920  0.34704  1.0000
  C   C261      1.0  0.32481  0.33301  0.34711  1.0000
  C   C262      1.0  0.32022  0.35381  0.34715  1.0000
  C   C263      1.0  0.30014  0.36102  0.34642  1.0000
  C   C264      1.0  0.28440  0.34659  0.34677  1.0000
  H   H136      1.0  0.33182  0.36395  0.34740  1.0000
  H   H137      1.0  0.26980  0.35151  0.34648  1.0000
  H   H138      1.0  0.31168  0.30411  0.34685  1.0000
  C   C265      1.0  0.44106  0.09205  0.34337  1.0000
  C   C266      1.0  0.42056  0.08632  0.34340  1.0000
  C   C267      1.0  0.41478  0.06583  0.34423  1.0000
  C   C268      1.0  0.42998  0.05096  0.34485  1.0000
  C   C269      1.0  0.45057  0.05624  0.34507  1.0000
  C   C270      1.0  0.45589  0.07682  0.34443  1.0000
  H   H139      1.0  0.42601  0.03606  0.34517  1.0000
  H   H140      1.0  0.47080  0.08076  0.34469  1.0000
  H   H141      1.0  0.40968  0.09723  0.34280  1.0000
  C   C271      1.0  0.56603  0.91480  0.34088  1.0000
  C   C272      1.0  0.58651  0.92051  0.34299  1.0000
  C   C273      1.0  0.59230  0.94098  0.34550  1.0000
  C   C274      1.0  0.57709  0.95584  0.34615  1.0000
  C   C275      1.0  0.55646  0.95064  0.34387  1.0000
  C   C276      1.0  0.55120  0.93004  0.34111  1.0000
  H   H142      1.0  0.58111  0.97072  0.34811  1.0000
  H   H143      1.0  0.53631  0.92605  0.33938  1.0000
  H   H144      1.0  0.59740  0.90959  0.34268  1.0000
  C   C277      1.0  0.91487  0.44108  0.34336  1.0000
  C   C278      1.0  0.92061  0.42059  0.34342  1.0000
  C   C279      1.0  0.94109  0.41481  0.34426  1.0000
  C   C280      1.0  0.95596  0.43002  0.34487  1.0000
  C   C281      1.0  0.95068  0.45061  0.34507  1.0000
  C   C282      1.0  0.93010  0.45592  0.34442  1.0000
  H   H145      1.0  0.97086  0.42605  0.34521  1.0000
  H   H146      1.0  0.92615  0.47083  0.34466  1.0000
  H   H147      1.0  0.90970  0.40970  0.34281  1.0000
  C   C283      1.0  0.09212  0.56605  0.34090  1.0000
  C   C284      1.0  0.08641  0.58654  0.34299  1.0000
  C   C285      1.0  0.06594  0.59233  0.34548  1.0000
  C   C286      1.0  0.05108  0.57712  0.34615  1.0000
  C   C287      1.0  0.05628  0.55650  0.34389  1.0000
  C   C288      1.0  0.07688  0.55123  0.34114  1.0000
  H   H148      1.0  0.03620  0.58115  0.34809  1.0000
  H   H149      1.0  0.08086  0.53634  0.33942  1.0000
  H   H150      1.0  0.09733  0.59742  0.34267  1.0000
  C   C289      1.0  0.31900  0.05427  0.40929  1.0000
  C   C290      1.0  0.29823  0.04958  0.40795  1.0000
  H   H151      1.0  0.28884  0.05704  0.45107  1.0000
  C   C291      1.0  0.38658  0.04644  0.40816  1.0000
  C   C292      1.0  0.36613  0.04108  0.40878  1.0000
  H   H152      1.0  0.39584  0.04049  0.45621  1.0000
  H   H153      1.0  0.36105  0.03129  0.45676  1.0000
  N   N31       1.0  0.32682  0.06915  0.46770  1.0000
  O   O61       1.0  0.32381  0.06463  0.54850  1.0000
  O   O62       1.0  0.31911  0.08607  0.45241  1.0000
  C   C293      1.0  0.68808  0.95276  0.41298  1.0000
  C   C294      1.0  0.70884  0.95748  0.41144  1.0000
  H   H154      1.0  0.71827  0.95003  0.45444  1.0000
  C   C295      1.0  0.62043  0.96020  0.41134  1.0000
  C   C296      1.0  0.64087  0.96559  0.41257  1.0000
  H   H155      1.0  0.61111  0.96602  0.45947  1.0000
  H   H156      1.0  0.64588  0.97529  0.46107  1.0000
  N   N32       1.0  0.68032  0.93785  0.47141  1.0000
  O   O63       1.0  0.68336  0.94236  0.55218  1.0000
  O   O64       1.0  0.68805  0.92094  0.45599  1.0000
  C   C297      1.0  0.95272  0.31904  0.40938  1.0000
  C   C298      1.0  0.95742  0.29827  0.40803  1.0000
  H   H157      1.0  0.94996  0.28888  0.45117  1.0000
  C   C299      1.0  0.96050  0.38662  0.40822  1.0000
  C   C300      1.0  0.96587  0.36617  0.40885  1.0000
  H   H158      1.0  0.96644  0.39588  0.45627  1.0000
  H   H159      1.0  0.97566  0.36110  0.45684  1.0000
  N   N33       1.0  0.93783  0.32685  0.46783  1.0000
  O   O65       1.0  0.94236  0.32384  0.54861  1.0000
  O   O66       1.0  0.92092  0.31914  0.45256  1.0000
  C   C301      1.0  0.05421  0.68812  0.41291  1.0000
  C   C302      1.0  0.04950  0.70888  0.41137  1.0000
  H   H160      1.0  0.05696  0.71830  0.45437  1.0000
  C   C303      1.0  0.04673  0.62047  0.41128  1.0000
  C   C304      1.0  0.04134  0.64092  0.41251  1.0000
  H   H161      1.0  0.04091  0.61116  0.45942  1.0000
  H   H162      1.0  0.03165  0.64594  0.46100  1.0000
  N   N34       1.0  0.06911  0.68034  0.47134  1.0000
  O   O67       1.0  0.06460  0.68339  0.55212  1.0000
  O   O68       1.0  0.08603  0.68807  0.45593  1.0000
  C   C305      1.0  0.21649  0.53476  0.33195  1.0000
  C   C306      1.0  0.20314  0.52478  0.39086  1.0000
  C   C307      1.0  0.18250  0.52939  0.39096  1.0000
  C   C308      1.0  0.17468  0.54392  0.33127  1.0000
  C   C309      1.0  0.15404  0.54915  0.33670  1.0000
  C   C310      1.0  0.14701  0.56286  0.40255  1.0000
  C   C311      1.0  0.12643  0.56836  0.40285  1.0000
  C   C312      1.0  0.11277  0.56042  0.33927  1.0000
  H   H163      1.0  0.12140  0.57812  0.45102  1.0000
  H   H164      1.0  0.20846  0.51465  0.43687  1.0000
  H   H165      1.0  0.17329  0.52231  0.43610  1.0000
  N   N35       1.0  0.16068  0.57096  0.46589  1.0000
  O   O69       1.0  0.15571  0.56645  0.54473  1.0000
  O   O70       1.0  0.16172  0.58979  0.45958  1.0000
  C   C313      1.0  0.79043  0.47217  0.33519  1.0000
  C   C314      1.0  0.80374  0.48221  0.39409  1.0000
  C   C315      1.0  0.82439  0.47761  0.39444  1.0000
  C   C316      1.0  0.83225  0.46303  0.33504  1.0000
  C   C317      1.0  0.85290  0.45788  0.34044  1.0000
  C   C318      1.0  0.85994  0.44391  0.40518  1.0000
  C   C319      1.0  0.88054  0.43847  0.40520  1.0000
  C   C320      1.0  0.89421  0.44671  0.34244  1.0000
  H   H166      1.0  0.88557  0.42850  0.45253  1.0000
  H   H167      1.0  0.79841  0.49237  0.43985  1.0000
  H   H168      1.0  0.83359  0.48473  0.43951  1.0000
  N   N36       1.0  0.84626  0.43553  0.46772  1.0000
  O   O71       1.0  0.85120  0.43974  0.54695  1.0000
  O   O72       1.0  0.84527  0.41672  0.45991  1.0000
  C   C321      1.0  0.53474  0.79042  0.33202  1.0000
  C   C322      1.0  0.52475  0.80377  0.39090  1.0000
  C   C323      1.0  0.52937  0.82442  0.39098  1.0000
  C   C324      1.0  0.54390  0.83223  0.33129  1.0000
  C   C325      1.0  0.54914  0.85287  0.33670  1.0000
  C   C326      1.0  0.56284  0.85990  0.40254  1.0000
  C   C327      1.0  0.56833  0.88048  0.40284  1.0000
  C   C328      1.0  0.56039  0.89414  0.33926  1.0000
  H   H169      1.0  0.57810  0.88551  0.45102  1.0000
  H   H170      1.0  0.51463  0.79846  0.43691  1.0000
  H   H171      1.0  0.52229  0.83363  0.43611  1.0000
  N   N37       1.0  0.57094  0.84623  0.46589  1.0000
  O   O73       1.0  0.56642  0.85121  0.54474  1.0000
  O   O74       1.0  0.58977  0.84520  0.45960  1.0000
  C   C329      1.0  0.47214  0.21650  0.33516  1.0000
  C   C330      1.0  0.48218  0.20318  0.39407  1.0000
  C   C331      1.0  0.47758  0.18253  0.39443  1.0000
  C   C332      1.0  0.46301  0.17467  0.33506  1.0000
  C   C333      1.0  0.45785  0.15402  0.34046  1.0000
  C   C334      1.0  0.44388  0.14698  0.40520  1.0000
  C   C335      1.0  0.43845  0.12638  0.40522  1.0000
  C   C336      1.0  0.44669  0.11271  0.34246  1.0000
  H   H172      1.0  0.42847  0.12134  0.45254  1.0000
  H   H173      1.0  0.49235  0.20852  0.43981  1.0000
  H   H174      1.0  0.48471  0.17334  0.43951  1.0000
  N   N38       1.0  0.43550  0.16066  0.46773  1.0000
  O   O75       1.0  0.43971  0.15572  0.54697  1.0000
  O   O76       1.0  0.41670  0.16165  0.45991  1.0000
  C   C337      1.0  0.22221  0.06270  0.32133  1.0000
  C   C338      1.0  0.20830  0.06777  0.38943  1.0000
  C   C339      1.0  0.19903  0.08686  0.39102  1.0000
  C   C340      1.0  0.20319  0.10140  0.32414  1.0000
  C   C341      1.0  0.19520  0.12130  0.33196  1.0000
  C   C342      1.0  0.20298  0.13523  0.39537  1.0000
  C   C343      1.0  0.19570  0.15531  0.39608  1.0000
  C   C344      1.0  0.18076  0.16200  0.33527  1.0000
  H   H175      1.0  0.20143  0.16514  0.44239  1.0000
  H   H176      1.0  0.20581  0.05810  0.44172  1.0000
  H   H177      1.0  0.18969  0.09034  0.44342  1.0000
  N   N39       1.0  0.21824  0.12896  0.45551  1.0000
  O   O77       1.0  0.21267  0.13070  0.53574  1.0000
  O   O78       1.0  0.23413  0.13892  0.44460  1.0000
  C   C345      1.0  0.78478  0.94435  0.32293  1.0000
  C   C346      1.0  0.79874  0.93925  0.39074  1.0000
  C   C347      1.0  0.80800  0.92015  0.39204  1.0000
  C   C348      1.0  0.80376  0.90564  0.32514  1.0000
  C   C349      1.0  0.81174  0.88573  0.33273  1.0000
  C   C350      1.0  0.80394  0.87177  0.39598  1.0000
  C   C351      1.0  0.81120  0.85169  0.39652  1.0000
  C   C352      1.0  0.82615  0.84502  0.33569  1.0000
  H   H178      1.0  0.80546  0.84184  0.44273  1.0000
  H   H179      1.0  0.80129  0.94890  0.44305  1.0000
  H   H180      1.0  0.81738  0.91665  0.44424  1.0000
  N   N40       1.0  0.78868  0.87803  0.45615  1.0000
  O   O79       1.0  0.79424  0.87624  0.53637  1.0000
  O   O80       1.0  0.77278  0.86808  0.44512  1.0000
  C   C353      1.0  0.94431  0.22226  0.32131  1.0000
  C   C354      1.0  0.93923  0.20836  0.38945  1.0000
  C   C355      1.0  0.92014  0.19910  0.39104  1.0000
  C   C356      1.0  0.90560  0.20326  0.32413  1.0000
  C   C357      1.0  0.88570  0.19527  0.33196  1.0000
  C   C358      1.0  0.87177  0.20307  0.39532  1.0000
  C   C359      1.0  0.85169  0.19580  0.39606  1.0000
  C   C360      1.0  0.84500  0.18084  0.33533  1.0000
  H   H181      1.0  0.84186  0.20154  0.44234  1.0000
  H   H182      1.0  0.94890  0.20588  0.44177  1.0000
  H   H183      1.0  0.91665  0.18977  0.44347  1.0000
  N   N41       1.0  0.87804  0.21835  0.45540  1.0000
  O   O81       1.0  0.87630  0.21279  0.53565  1.0000
  O   O82       1.0  0.86809  0.23424  0.44441  1.0000
  C   C361      1.0  0.06266  0.78482  0.32300  1.0000
  C   C362      1.0  0.06774  0.79882  0.39072  1.0000
  C   C363      1.0  0.08684  0.80808  0.39201  1.0000
  C   C364      1.0  0.10136  0.80383  0.32516  1.0000
  C   C365      1.0  0.12127  0.81182  0.33274  1.0000
  C   C366      1.0  0.13522  0.80404  0.39603  1.0000
  C   C367      1.0  0.15531  0.81130  0.39654  1.0000
  C   C368      1.0  0.16197  0.82623  0.33564  1.0000
  H   H184      1.0  0.16515  0.80557  0.44277  1.0000
  H   H185      1.0  0.05808  0.80137  0.44299  1.0000
  H   H186      1.0  0.09033  0.81748  0.44416  1.0000
  N   N42       1.0  0.12897  0.78878  0.45628  1.0000
  O   O83       1.0  0.13076  0.79437  0.53647  1.0000
  O   O84       1.0  0.13892  0.77289  0.44533  1.0000
  C   C369      1.0  0.28988  0.59612  0.42625  1.0000
  C   C370      1.0  0.28062  0.57691  0.42664  1.0000
  H   H187      1.0  0.27021  0.57379  0.47541  1.0000
  C   C371      1.0  0.33362  0.64748  0.40887  1.0000
  C   C372      1.0  0.32638  0.62756  0.41053  1.0000
  H   H188      1.0  0.34408  0.65170  0.45564  1.0000
  H   H189      1.0  0.33190  0.61787  0.45795  1.0000
  N   N43       1.0  0.28492  0.61076  0.49177  1.0000
  O   O85       1.0  0.28915  0.60473  0.56944  1.0000
  O   O86       1.0  0.26656  0.61524  0.48906  1.0000
  C   C373      1.0  0.71686  0.41089  0.42776  1.0000
  C   C374      1.0  0.72611  0.43011  0.42840  1.0000
  H   H190      1.0  0.73642  0.43324  0.47755  1.0000
  C   C375      1.0  0.67322  0.35949  0.40940  1.0000
  C   C376      1.0  0.68046  0.37942  0.41121  1.0000
  H   H191      1.0  0.66275  0.35527  0.45609  1.0000
  H   H192      1.0  0.67493  0.38909  0.45862  1.0000
  N   N44       1.0  0.72170  0.39628  0.49352  1.0000
  O   O87       1.0  0.71732  0.40232  0.57101  1.0000
  O   O88       1.0  0.74007  0.39180  0.49150  1.0000
  C   C377      1.0  0.59608  0.71703  0.42635  1.0000
  C   C378      1.0  0.57686  0.72628  0.42674  1.0000
  H   H193      1.0  0.57373  0.73667  0.47556  1.0000
  C   C379      1.0  0.64746  0.67331  0.40897  1.0000
  C   C380      1.0  0.62754  0.68055  0.41061  1.0000
  H   H194      1.0  0.65167  0.66286  0.45576  1.0000
  H   H195      1.0  0.61784  0.67504  0.45803  1.0000
  N   N45       1.0  0.61070  0.72198  0.49192  1.0000
  O   O89       1.0  0.60467  0.71772  0.56957  1.0000
  O   O90       1.0  0.61518  0.74034  0.48931  1.0000
  C   C381      1.0  0.41086  0.29006  0.42769  1.0000
  C   C382      1.0  0.43007  0.28080  0.42833  1.0000
  H   H196      1.0  0.43320  0.27049  0.47747  1.0000
  C   C383      1.0  0.35947  0.33371  0.40930  1.0000
  C   C384      1.0  0.37939  0.32647  0.41113  1.0000
  H   H197      1.0  0.35524  0.34419  0.45597  1.0000
  H   H198      1.0  0.38907  0.33200  0.45854  1.0000
  N   N46       1.0  0.39624  0.28522  0.49344  1.0000
  O   O91       1.0  0.40228  0.28959  0.57095  1.0000
  O   O92       1.0  0.39176  0.26685  0.49141  1.0000
  C   C385      1.0  0.20377  0.91673  0.39948  1.0000
  C   C386      1.0  0.20023  0.89566  0.39830  1.0000
  H   H199      1.0  0.18965  0.88990  0.44108  1.0000
  C   C387      1.0  0.23803  0.97537  0.41621  1.0000
  C   C388      1.0  0.23290  0.95483  0.41510  1.0000
  H   H200      1.0  0.24584  0.98088  0.47011  1.0000
  H   H201      1.0  0.23713  0.94602  0.46823  1.0000
  N   N47       1.0  0.19260  0.92962  0.45644  1.0000
  O   O93       1.0  0.19514  0.92517  0.53764  1.0000
  O   O94       1.0  0.17412  0.92888  0.43886  1.0000
  C   C389      1.0  0.80328  0.09036  0.40029  1.0000
  C   C390      1.0  0.80680  0.11143  0.39890  1.0000
  H   H202      1.0  0.81739  0.11722  0.44156  1.0000
  C   C391      1.0  0.76902  0.03173  0.41788  1.0000
  C   C392      1.0  0.77415  0.05227  0.41651  1.0000
  H   H203      1.0  0.76123  0.02625  0.47190  1.0000
  H   H204      1.0  0.76994  0.06111  0.46956  1.0000
  N   N48       1.0  0.81447  0.07750  0.45732  1.0000
  O   O95       1.0  0.81195  0.08199  0.53848  1.0000
  O   O96       1.0  0.83294  0.07824  0.43963  1.0000
  C   C393      1.0  0.09026  0.20379  0.39942  1.0000
  C   C394      1.0  0.11133  0.20025  0.39823  1.0000
  H   H205      1.0  0.11710  0.18966  0.44099  1.0000
  C   C395      1.0  0.03164  0.23810  0.41615  1.0000
  C   C396      1.0  0.05218  0.23296  0.41504  1.0000
  H   H206      1.0  0.02614  0.24592  0.47001  1.0000
  H   H207      1.0  0.06100  0.23719  0.46814  1.0000
  N   N49       1.0  0.07737  0.19263  0.45638  1.0000
  O   O97       1.0  0.08183  0.19516  0.53758  1.0000
  O   O98       1.0  0.07810  0.17415  0.43879  1.0000
  C   C397      1.0  0.91664  0.80330  0.40034  1.0000
  C   C398      1.0  0.89557  0.80682  0.39895  1.0000
  H   H208      1.0  0.88978  0.81741  0.44164  1.0000
  C   C399      1.0  0.97529  0.76910  0.41794  1.0000
  C   C400      1.0  0.95474  0.77422  0.41656  1.0000
  H   H209      1.0  0.98077  0.76133  0.47199  1.0000
  H   H210      1.0  0.94590  0.77002  0.46965  1.0000
  N   N50       1.0  0.92949  0.81449  0.45736  1.0000
  O   O99       1.0  0.92500  0.81197  0.53853  1.0000
  O   O100      1.0  0.92875  0.83296  0.43967  1.0000
  C   C401      1.0  0.29607  0.38227  0.34503  1.0000
  C   C402      1.0  0.28167  0.39106  0.40301  1.0000
  C   C403      1.0  0.27806  0.41197  0.40264  1.0000
  C   C404      1.0  0.28855  0.42489  0.34346  1.0000
  C   C405      1.0  0.28415  0.44598  0.34311  1.0000
  C   C406      1.0  0.28979  0.45892  0.41477  1.0000
  C   C407      1.0  0.28478  0.47970  0.41106  1.0000
  C   C408      1.0  0.27391  0.48791  0.33812  1.0000
  H   H211      1.0  0.28844  0.48874  0.46425  1.0000
  H   H212      1.0  0.27392  0.38233  0.44774  1.0000
  H   H213      1.0  0.26752  0.41769  0.44576  1.0000
  N   N51       1.0  0.30035  0.45078  0.48885  1.0000
  O   O101      1.0  0.29061  0.45293  0.56052  1.0000
  O   O102      1.0  0.31729  0.45893  0.49786  1.0000
  C   C409      1.0  0.71089  0.62474  0.34544  1.0000
  C   C410      1.0  0.72526  0.61596  0.40360  1.0000
  C   C411      1.0  0.72888  0.59506  0.40344  1.0000
  C   C412      1.0  0.71841  0.58211  0.34429  1.0000
  C   C413      1.0  0.72281  0.56102  0.34419  1.0000
  C   C414      1.0  0.71709  0.54811  0.41583  1.0000
  C   C415      1.0  0.72210  0.52732  0.41236  1.0000
  C   C416      1.0  0.73304  0.51909  0.33972  1.0000
  H   H214      1.0  0.71837  0.51831  0.46554  1.0000
  H   H215      1.0  0.73300  0.62472  0.44830  1.0000
  H   H216      1.0  0.73940  0.58935  0.44668  1.0000
  N   N52       1.0  0.70645  0.55628  0.48962  1.0000
  O   O103      1.0  0.71612  0.55416  0.56150  1.0000
  O   O104      1.0  0.68950  0.54814  0.49835  1.0000
  C   C417      1.0  0.38222  0.71088  0.34495  1.0000
  C   C418      1.0  0.39101  0.72527  0.40298  1.0000
  C   C419      1.0  0.41192  0.72888  0.40264  1.0000
  C   C420      1.0  0.42484  0.71839  0.34346  1.0000
  C   C421      1.0  0.44594  0.72279  0.34313  1.0000
  C   C422      1.0  0.45887  0.71714  0.41479  1.0000
  C   C423      1.0  0.47965  0.72215  0.41108  1.0000
  C   C424      1.0  0.48787  0.73302  0.33817  1.0000
  H   H217      1.0  0.48869  0.71847  0.46426  1.0000
  H   H218      1.0  0.38228  0.73303  0.44770  1.0000
  H   H219      1.0  0.41765  0.73941  0.44578  1.0000
  N   N53       1.0  0.45073  0.70657  0.48883  1.0000
  O   O105      1.0  0.45288  0.71630  0.56053  1.0000
  O   O106      1.0  0.45887  0.68963  0.49781  1.0000
  C   C425      1.0  0.62469  0.29606  0.34550  1.0000
  C   C426      1.0  0.61592  0.28168  0.40364  1.0000
  C   C427      1.0  0.59502  0.27806  0.40346  1.0000
  C   C428      1.0  0.58207  0.28853  0.34430  1.0000
  C   C429      1.0  0.56098  0.28413  0.34418  1.0000
  C   C430      1.0  0.54807  0.28984  0.41582  1.0000
  C   C431      1.0  0.52728  0.28483  0.41234  1.0000
  C   C432      1.0  0.51905  0.27389  0.33969  1.0000
  H   H220      1.0  0.51827  0.28855  0.46552  1.0000
  H   H221      1.0  0.62468  0.27394  0.44835  1.0000
  H   H222      1.0  0.58931  0.26754  0.44669  1.0000
  N   N54       1.0  0.55624  0.30048  0.48962  1.0000
  O   O107      1.0  0.55411  0.29081  0.56150  1.0000
  O   O108      1.0  0.54809  0.31743  0.49836  1.0000
  C   C433      1.0  0.27212  0.31110  0.34762  1.0000
  C   C434      1.0  0.27245  0.29424  0.40576  1.0000
  C   C435      1.0  0.25694  0.27979  0.40486  1.0000
  C   C436      1.0  0.24053  0.28149  0.34495  1.0000
  C   C437      1.0  0.22529  0.26627  0.34460  1.0000
  C   C438      1.0  0.21071  0.26474  0.41402  1.0000
  C   C439      1.0  0.19592  0.24932  0.41034  1.0000
  C   C440      1.0  0.19552  0.23500  0.34010  1.0000
  H   H223      1.0  0.18563  0.24827  0.46128  1.0000
  H   H224      1.0  0.28399  0.29241  0.45049  1.0000
  H   H225      1.0  0.25784  0.26782  0.44791  1.0000
  N   N55       1.0  0.21120  0.27874  0.48560  1.0000
  O   O109      1.0  0.21396  0.27006  0.55954  1.0000
  O   O110      1.0  0.19516  0.28870  0.48979  1.0000
  C   C441      1.0  0.73482  0.69591  0.34762  1.0000
  C   C442      1.0  0.73448  0.71278  0.40569  1.0000
  C   C443      1.0  0.74999  0.72723  0.40480  1.0000
  C   C444      1.0  0.76641  0.72552  0.34497  1.0000
  C   C445      1.0  0.78165  0.74073  0.34466  1.0000
  C   C446      1.0  0.79623  0.74226  0.41406  1.0000
  C   C447      1.0  0.81103  0.75767  0.41043  1.0000
  C   C448      1.0  0.81142  0.77201  0.34024  1.0000
  H   H226      1.0  0.82131  0.75872  0.46138  1.0000
  H   H227      1.0  0.72293  0.71462  0.45037  1.0000
  H   H228      1.0  0.74907  0.73921  0.44780  1.0000
  N   N56       1.0  0.79575  0.72825  0.48559  1.0000
  O   O111      1.0  0.79299  0.73691  0.55957  1.0000
  O   O112      1.0  0.81179  0.71829  0.48973  1.0000
  C   C449      1.0  0.69587  0.27215  0.34775  1.0000
  C   C450      1.0  0.71274  0.27249  0.40585  1.0000
  C   C451      1.0  0.72719  0.25698  0.40494  1.0000
  C   C452      1.0  0.72549  0.24058  0.34506  1.0000
  C   C453      1.0  0.74071  0.22533  0.34472  1.0000
  C   C454      1.0  0.74225  0.21076  0.41414  1.0000
  C   C455      1.0  0.75766  0.19597  0.41049  1.0000
  C   C456      1.0  0.77199  0.19557  0.34025  1.0000
  H   H229      1.0  0.75872  0.18568  0.46143  1.0000
  H   H230      1.0  0.71457  0.28403  0.45057  1.0000
  H   H231      1.0  0.73917  0.25789  0.44796  1.0000
  N   N57       1.0  0.72824  0.21124  0.48570  1.0000
  O   O113      1.0  0.73691  0.21401  0.55966  1.0000
  O   O114      1.0  0.71829  0.19520  0.48989  1.0000
  C   C457      1.0  0.31105  0.73485  0.34748  1.0000
  C   C458      1.0  0.29418  0.73451  0.40558  1.0000
  C   C459      1.0  0.27974  0.75003  0.40470  1.0000
  C   C460      1.0  0.28146  0.76644  0.34485  1.0000
  C   C461      1.0  0.26624  0.78169  0.34454  1.0000
  C   C462      1.0  0.26471  0.79627  0.41396  1.0000
  C   C463      1.0  0.24930  0.81107  0.41032  1.0000
  C   C464      1.0  0.23498  0.81147  0.34009  1.0000
  H   H232      1.0  0.24826  0.82135  0.46127  1.0000
  H   H233      1.0  0.29235  0.72297  0.45027  1.0000
  H   H234      1.0  0.26776  0.74912  0.44772  1.0000
  N   N58       1.0  0.27872  0.79578  0.48552  1.0000
  O   O115      1.0  0.27004  0.79301  0.55947  1.0000
  O   O116      1.0  0.28868  0.81181  0.48972  1.0000
  C   C465      1.0  0.54133  0.96580  0.34405  1.0000
  C   C466      1.0  0.52477  0.96463  0.40338  1.0000
  C   C467      1.0  0.50990  0.97965  0.40385  1.0000
  C   C468      1.0  0.51116  0.99612  0.34434  1.0000
  C   C469      1.0  0.49601  0.01107  0.34709  1.0000
  C   C470      1.0  0.49609  0.02629  0.41379  1.0000
  C   C471      1.0  0.48092  0.04122  0.41206  1.0000
  C   C472      1.0  0.46566  0.04112  0.34594  1.0000
  H   H235      1.0  0.48095  0.05214  0.46056  1.0000
  H   H236      1.0  0.52356  0.95301  0.44812  1.0000
  H   H237      1.0  0.49815  0.97845  0.44800  1.0000
  N   N59       1.0  0.51138  0.02637  0.47998  1.0000
  O   O117      1.0  0.50409  0.02468  0.55745  1.0000
  O   O118      1.0  0.52163  0.04224  0.47651  1.0000
  C   C473      1.0  0.04111  0.54137  0.34407  1.0000
  C   C474      1.0  0.04227  0.52481  0.40343  1.0000
  C   C475      1.0  0.02726  0.50994  0.40389  1.0000
  C   C476      1.0  0.01079  0.51120  0.34436  1.0000
  C   C477      1.0  0.99584  0.49605  0.34710  1.0000
  C   C478      1.0  0.98063  0.49613  0.41381  1.0000
  C   C479      1.0  0.96569  0.48095  0.41207  1.0000
  C   C480      1.0  0.96580  0.46570  0.34594  1.0000
  H   H238      1.0  0.95478  0.48098  0.46058  1.0000
  H   H239      1.0  0.05389  0.52360  0.44818  1.0000
  H   H240      1.0  0.02846  0.49819  0.44805  1.0000
  N   N60       1.0  0.98054  0.51142  0.48002  1.0000
  O   O119      1.0  0.98223  0.50412  0.55747  1.0000
  O   O120      1.0  0.96466  0.52166  0.47656  1.0000
