data_image0
_chemical_formula_structural       NCHC2NCNO2C2NCNO2C2NCNO2NCHNCHNCHNCHC2NCNO2C2NCNO2NCHC2NCNO2C2NCNO2C2NCNO2NCHNCHNCHNCHC2NCNO2C2NCNO2NCHNCHC2NCNO2C2NCNO2NCHNCHC2NCNO2C2NCNO2NCHNCHC2NCNO2C2NCNO2NCHNCHC2NCNO2C2NCNO2CNCNCNCNCNCNCNCNCNCNCNCNCNCNCNCNCNCNCNCNCNCNCNCNCNCNCNCNCNCNCNCNCNCNCNCNCNCNCNCNCNCNCNCNCNCNCNCNCNCNCNCNCNCNCNCNCNCNCNCNCNCNCNCNCNCNCNCNCNCNCNCNC2NCNO2NCHNCHNCHC2NCNO2C2NCNO2C2NCNO2C2NCNO2NCHNCHC2NCNO2NCHNCHNCHC2NCNO2C2NCNO2C2NCNO2C2NCNO2NCHNCHC2NCNO2C2NCNO2NCHNCHC2NCNO2C2NCNO2NCHNCHC2NCNO2C2NCNO2NCHNCHC2NCNO2C2NCNO2NCHNCH
_chemical_formula_sum              "N180 C216 H36 O72"
_cell_length_a       41.9801
_cell_length_b       53.3774
_cell_length_c       14.8505
_cell_angle_alpha    90
_cell_angle_beta     90
_cell_angle_gamma    90

_space_group_name_H-M_alt    "P 1"
_space_group_IT_number       1

loop_
  _space_group_symop_operation_xyz
  'x, y, z'

loop_
  _atom_site_type_symbol
  _atom_site_label
  _atom_site_symmetry_multiplicity
  _atom_site_fract_x
  _atom_site_fract_y
  _atom_site_fract_z
  _atom_site_occupancy
  N   N1        1.0  0.49396  0.98205  0.35222  1.0000
  C   C1        1.0  0.47283  0.00129  0.35233  1.0000
  H   H1        1.0  0.44900  0.99749  0.34839  1.0000
  C   C2        1.0  0.98382  0.48474  0.32987  1.0000
  C   C3        1.0  0.02566  0.52603  0.32942  1.0000
  N   N2        1.0  0.99349  0.52875  0.32449  1.0000
  C   C4        1.0  0.97202  0.50960  0.32432  1.0000
  N   N3        1.0  0.93925  0.51506  0.31789  1.0000
  O   O1        1.0  0.93054  0.52852  0.38273  1.0000
  O   O2        1.0  0.93341  0.52657  0.24602  1.0000
  C   C5        1.0  0.31399  0.07683  0.33981  1.0000
  C   C6        1.0  0.38038  0.06846  0.34771  1.0000
  N   N4        1.0  0.36748  0.08950  0.31192  1.0000
  C   C7        1.0  0.33594  0.09464  0.30429  1.0000
  N   N5        1.0  0.32647  0.11708  0.26072  1.0000
  O   O3        1.0  0.34856  0.13270  0.24887  1.0000
  O   O4        1.0  0.31592  0.11179  0.18395  1.0000
  C   C8        1.0  0.69602  0.93343  0.33895  1.0000
  C   C9        1.0  0.62965  0.94165  0.34513  1.0000
  N   N6        1.0  0.64270  0.92155  0.30330  1.0000
  C   C10       1.0  0.67436  0.91666  0.29679  1.0000
  N   N7        1.0  0.68428  0.89566  0.24632  1.0000
  O   O5        1.0  0.67009  0.87626  0.27222  1.0000
  O   O6        1.0  0.67746  0.89884  0.16482  1.0000
  N   N8        1.0  0.18345  0.55520  0.31305  1.0000
  C   C11       1.0  0.15156  0.55009  0.30982  1.0000
  H   H2        1.0  0.14385  0.53375  0.28134  1.0000
  N   N9        1.0  0.82691  0.45419  0.30819  1.0000
  C   C12       1.0  0.85881  0.45925  0.30542  1.0000
  H   H3        1.0  0.86676  0.47473  0.27170  1.0000
  N   N10       1.0  0.51438  0.14814  0.33903  1.0000
  C   C13       1.0  0.50614  0.12343  0.33598  1.0000
  H   H4        1.0  0.52155  0.11070  0.30862  1.0000
  N   N11       1.0  0.49549  0.86224  0.33208  1.0000
  C   C14       1.0  0.50373  0.88695  0.32934  1.0000
  H   H5        1.0  0.48840  0.89971  0.30179  1.0000
  C   C15       1.0  0.01494  0.66672  0.31549  1.0000
  C   C16       1.0  0.03461  0.61628  0.32184  1.0000
  N   N12       1.0  0.05316  0.63464  0.28737  1.0000
  C   C17       1.0  0.04511  0.65919  0.28151  1.0000
  N   N13       1.0  0.06695  0.67557  0.24023  1.0000
  O   O7        1.0  0.09424  0.67266  0.27366  1.0000
  O   O8        1.0  0.06892  0.67063  0.15777  1.0000
  C   C18       1.0  0.99542  0.34366  0.32187  1.0000
  C   C19       1.0  0.97575  0.39409  0.32756  1.0000
  N   N14       1.0  0.95734  0.37572  0.29256  1.0000
  C   C20       1.0  0.96539  0.35117  0.28697  1.0000
  N   N15       1.0  0.94370  0.33479  0.24506  1.0000
  O   O9        1.0  0.91628  0.33772  0.27761  1.0000
  O   O10       1.0  0.94205  0.33971  0.16252  1.0000
  N   N16       1.0  0.51446  0.52878  0.33616  1.0000
  C   C21       1.0  0.48272  0.52368  0.33623  1.0000
  H   H6        1.0  0.46681  0.53816  0.33367  1.0000
  C   C22       1.0  0.97204  0.01117  0.34767  1.0000
  C   C23       1.0  0.03754  0.99852  0.34749  1.0000
  N   N17       1.0  0.01407  0.98094  0.34441  1.0000
  C   C24       1.0  0.98213  0.98580  0.34421  1.0000
  N   N18       1.0  0.96038  0.96572  0.34023  1.0000
  O   O11       1.0  0.96410  0.95138  0.40644  1.0000
  O   O12       1.0  0.96454  0.95322  0.26957  1.0000
  C   C25       1.0  0.39689  0.43053  0.33859  1.0000
  C   C26       1.0  0.38111  0.37919  0.34325  1.0000
  N   N19       1.0  0.41164  0.38737  0.33585  1.0000
  C   C27       1.0  0.42086  0.41180  0.33297  1.0000
  N   N20       1.0  0.45355  0.41738  0.32404  1.0000
  O   O13       1.0  0.46909  0.40850  0.38886  1.0000
  O   O14       1.0  0.46443  0.40831  0.25234  1.0000
  C   C28       1.0  0.61329  0.57988  0.33477  1.0000
  C   C29       1.0  0.62897  0.63125  0.33823  1.0000
  N   N21       1.0  0.59848  0.62302  0.32973  1.0000
  C   C30       1.0  0.58933  0.59857  0.32729  1.0000
  N   N22       1.0  0.55674  0.59288  0.31693  1.0000
  O   O15       1.0  0.54077  0.60197  0.38053  1.0000
  O   O16       1.0  0.54632  0.60171  0.24428  1.0000
  N   N23       1.0  0.14387  0.92237  0.34108  1.0000
  C   C31       1.0  0.15268  0.89787  0.33881  1.0000
  H   H7        1.0  0.17627  0.89341  0.33271  1.0000
  N   N24       1.0  0.86615  0.08811  0.34386  1.0000
  C   C32       1.0  0.85738  0.11262  0.34217  1.0000
  H   H8        1.0  0.83383  0.11712  0.33517  1.0000
  N   N25       1.0  0.30355  0.52864  0.33229  1.0000
  C   C33       1.0  0.32586  0.51013  0.33274  1.0000
  H   H9        1.0  0.31860  0.49188  0.32860  1.0000
  N   N26       1.0  0.70701  0.48165  0.33239  1.0000
  C   C34       1.0  0.68482  0.50026  0.33251  1.0000
  H   H10       1.0  0.69217  0.51847  0.32764  1.0000
  C   C35       1.0  0.19976  0.05359  0.34975  1.0000
  C   C36       1.0  0.15157  0.01649  0.34882  1.0000
  N   N27       1.0  0.14488  0.04131  0.34342  1.0000
  C   C37       1.0  0.16691  0.06007  0.34336  1.0000
  N   N28       1.0  0.15606  0.08498  0.33544  1.0000
  O   O17       1.0  0.13782  0.09048  0.39950  1.0000
  O   O18       1.0  0.14116  0.08800  0.26290  1.0000
  C   C38       1.0  0.80996  0.95673  0.34886  1.0000
  C   C39       1.0  0.85790  0.99404  0.34856  1.0000
  N   N29       1.0  0.86473  0.96924  0.34235  1.0000
  C   C40       1.0  0.84284  0.95040  0.34193  1.0000
  N   N30       1.0  0.85385  0.92555  0.33317  1.0000
  O   O19       1.0  0.87224  0.92000  0.39682  1.0000
  O   O20       1.0  0.86869  0.92278  0.26040  1.0000
  N   N31       1.0  0.20288  0.14739  0.35204  1.0000
  C   C41       1.0  0.19276  0.17160  0.35228  1.0000
  H   H11       1.0  0.16932  0.17546  0.33989  1.0000
  N   N32       1.0  0.80670  0.86280  0.34240  1.0000
  C   C42       1.0  0.81688  0.83861  0.34210  1.0000
  H   H12       1.0  0.83972  0.83465  0.32293  1.0000
  C   C43       1.0  0.27644  0.64016  0.32025  1.0000
  C   C44       1.0  0.29490  0.69085  0.31963  1.0000
  N   N33       1.0  0.26444  0.68357  0.30390  1.0000
  C   C45       1.0  0.25397  0.65947  0.30295  1.0000
  N   N34       1.0  0.22164  0.65485  0.28335  1.0000
  O   O21       1.0  0.20402  0.66680  0.33652  1.0000
  O   O22       1.0  0.21527  0.66197  0.20481  1.0000
  C   C46       1.0  0.73352  0.37010  0.32221  1.0000
  C   C47       1.0  0.71495  0.31946  0.32243  1.0000
  N   N35       1.0  0.74469  0.32683  0.29843  1.0000
  C   C48       1.0  0.75515  0.35094  0.29650  1.0000
  N   N36       1.0  0.78635  0.35584  0.26609  1.0000
  O   O23       1.0  0.80609  0.34264  0.30835  1.0000
  O   O24       1.0  0.78865  0.35020  0.18429  1.0000
  N   N37       1.0  0.25474  0.29905  0.35227  1.0000
  C   C49       1.0  0.28037  0.31482  0.34909  1.0000
  H   H13       1.0  0.27721  0.33315  0.33123  1.0000
  N   N38       1.0  0.75534  0.71132  0.34773  1.0000
  C   C50       1.0  0.72970  0.69557  0.34435  1.0000
  H   H14       1.0  0.73283  0.67728  0.32602  1.0000
  C   C51       1.0  0.25359  0.77413  0.31373  1.0000
  C   C52       1.0  0.19900  0.80512  0.32076  1.0000
  N   N39       1.0  0.19774  0.78048  0.29877  1.0000
  C   C53       1.0  0.22279  0.76457  0.29327  1.0000
  N   N40       1.0  0.21654  0.73955  0.26770  1.0000
  O   O25       1.0  0.19790  0.72918  0.32244  1.0000
  O   O26       1.0  0.20419  0.73865  0.19073  1.0000
  C   C54       1.0  0.75640  0.23622  0.31796  1.0000
  C   C55       1.0  0.81104  0.20528  0.32549  1.0000
  N   N41       1.0  0.81228  0.22991  0.30323  1.0000
  C   C56       1.0  0.78720  0.24579  0.29745  1.0000
  N   N42       1.0  0.79345  0.27079  0.27174  1.0000
  O   O27       1.0  0.81206  0.28120  0.32649  1.0000
  O   O28       1.0  0.80583  0.27166  0.19481  1.0000
  N   N43       1.0  0.47593  0.27923  0.34853  1.0000
  C   C57       1.0  0.45524  0.29893  0.34638  1.0000
  H   H15       1.0  0.46370  0.31670  0.33734  1.0000
  N   N44       1.0  0.53412  0.73118  0.34152  1.0000
  C   C58       1.0  0.55484  0.71151  0.33957  1.0000
  H   H16       1.0  0.54641  0.69372  0.33029  1.0000
  C   C59       1.0  0.04286  0.75475  0.32691  1.0000
  C   C60       1.0  0.08771  0.79419  0.33100  1.0000
  N   N45       1.0  0.09610  0.76991  0.31954  1.0000
  C   C61       1.0  0.07594  0.75011  0.31669  1.0000
  N   N46       1.0  0.08925  0.72628  0.30296  1.0000
  O   O29       1.0  0.10829  0.72101  0.36547  1.0000
  O   O30       1.0  0.10433  0.72581  0.22980  1.0000
  C   C62       1.0  0.96726  0.25568  0.33373  1.0000
  C   C63       1.0  0.92235  0.21627  0.33745  1.0000
  N   N47       1.0  0.91401  0.24056  0.32575  1.0000
  C   C64       1.0  0.93420  0.26034  0.32306  1.0000
  N   N48       1.0  0.92097  0.28418  0.30888  1.0000
  O   O31       1.0  0.90183  0.28953  0.37105  1.0000
  O   O32       1.0  0.90602  0.28460  0.23549  1.0000
  N   N49       1.0  0.13443  0.28496  0.34775  1.0000
  C   C65       1.0  0.10475  0.29515  0.34279  1.0000
  H   H17       1.0  0.10236  0.31403  0.33350  1.0000
  N   N50       1.0  0.87572  0.72534  0.34121  1.0000
  C   C66       1.0  0.90541  0.71516  0.33598  1.0000
  H   H18       1.0  0.90780  0.69628  0.32654  1.0000
  C   C67       1.0  0.36967  0.76003  0.32772  1.0000
  C   C68       1.0  0.43215  0.77930  0.33787  1.0000
  N   N51       1.0  0.42610  0.75456  0.32590  1.0000
  C   C69       1.0  0.39668  0.74407  0.32008  1.0000
  N   N52       1.0  0.39461  0.71799  0.30574  1.0000
  O   O33       1.0  0.40781  0.70618  0.36867  1.0000
  O   O34       1.0  0.40782  0.71197  0.23299  1.0000
  C   C70       1.0  0.64030  0.25027  0.33412  1.0000
  C   C71       1.0  0.57781  0.23101  0.34483  1.0000
  N   N53       1.0  0.58386  0.25574  0.33270  1.0000
  C   C72       1.0  0.61327  0.26623  0.32662  1.0000
  N   N54       1.0  0.61532  0.29230  0.31202  1.0000
  O   O35       1.0  0.60218  0.30416  0.37491  1.0000
  O   O36       1.0  0.60206  0.29826  0.23929  1.0000
  C   C73       1.0  0.41413  0.06768  0.35409  1.0000
  N   N55       1.0  0.43225  0.04650  0.35499  1.0000
  C   C74       1.0  0.46483  0.04767  0.35726  1.0000
  N   N56       1.0  0.47909  0.07063  0.35915  1.0000
  C   C75       1.0  0.46188  0.09209  0.35965  1.0000
  N   N57       1.0  0.42970  0.08997  0.35684  1.0000
  C   C76       1.0  0.59593  0.94233  0.35112  1.0000
  N   N58       1.0  0.57798  0.96352  0.35373  1.0000
  C   C77       1.0  0.54540  0.96275  0.35558  1.0000
  N   N59       1.0  0.53092  0.93984  0.35556  1.0000
  C   C78       1.0  0.54797  0.91825  0.35457  1.0000
  N   N60       1.0  0.58020  0.92013  0.35200  1.0000
  C   C79       1.0  0.09593  0.56768  0.33275  1.0000
  N   N61       1.0  0.07782  0.54649  0.33180  1.0000
  C   C80       1.0  0.04524  0.54766  0.32951  1.0000
  N   N62       1.0  0.03097  0.57062  0.32761  1.0000
  C   C81       1.0  0.04818  0.59209  0.32712  1.0000
  N   N63       1.0  0.08036  0.58997  0.32997  1.0000
  C   C82       1.0  0.91414  0.44233  0.33575  1.0000
  N   N64       1.0  0.93209  0.46353  0.33309  1.0000
  C   C83       1.0  0.96467  0.46275  0.33116  1.0000
  N   N65       1.0  0.97914  0.43984  0.33116  1.0000
  C   C84       1.0  0.96208  0.41825  0.33216  1.0000
  N   N66       1.0  0.92986  0.42013  0.33482  1.0000
  C   C85       1.0  0.40290  0.45680  0.33818  1.0000
  N   N67       1.0  0.37870  0.47380  0.33802  1.0000
  C   C86       1.0  0.38406  0.49899  0.33820  1.0000
  N   N68       1.0  0.41497  0.50701  0.33868  1.0000
  C   C87       1.0  0.44005  0.49080  0.33902  1.0000
  N   N69       1.0  0.43309  0.46597  0.33886  1.0000
  C   C88       1.0  0.60736  0.55360  0.33548  1.0000
  N   N70       1.0  0.63176  0.53677  0.33627  1.0000
  C   C89       1.0  0.62666  0.51158  0.33787  1.0000
  N   N71       1.0  0.59584  0.50349  0.33892  1.0000
  C   C90       1.0  0.57045  0.51938  0.33835  1.0000
  N   N72       1.0  0.57720  0.54427  0.33666  1.0000
  C   C91       1.0  0.10717  0.95680  0.34860  1.0000
  N   N73       1.0  0.13136  0.97380  0.34876  1.0000
  C   C92       1.0  0.12601  0.99899  0.34858  1.0000
  N   N74       1.0  0.09510  0.00701  0.34810  1.0000
  C   C93       1.0  0.07002  0.99081  0.34777  1.0000
  N   N75       1.0  0.07697  0.96597  0.34792  1.0000
  C   C94       1.0  0.90271  0.05361  0.35128  1.0000
  N   N76       1.0  0.87831  0.03678  0.35050  1.0000
  C   C95       1.0  0.88341  0.01159  0.34890  1.0000
  N   N77       1.0  0.91423  0.00350  0.34787  1.0000
  C   C96       1.0  0.93962  0.01939  0.34843  1.0000
  N   N78       1.0  0.93287  0.04428  0.35011  1.0000
  C   C97       1.0  0.28070  0.08201  0.34730  1.0000
  N   N79       1.0  0.25684  0.06454  0.34703  1.0000
  C   C98       1.0  0.22534  0.07131  0.35202  1.0000
  N   N80       1.0  0.21867  0.09622  0.35880  1.0000
  C   C99       1.0  0.24135  0.11426  0.36165  1.0000
  N   N81       1.0  0.27186  0.10637  0.35548  1.0000
  C   C100      1.0  0.72921  0.92807  0.34614  1.0000
  N   N82       1.0  0.75299  0.94559  0.34631  1.0000
  C   C101      1.0  0.78450  0.93890  0.35084  1.0000
  N   N83       1.0  0.79123  0.91399  0.35706  1.0000
  C   C102      1.0  0.76857  0.89592  0.35974  1.0000
  N   N84       1.0  0.73796  0.90366  0.35360  1.0000
  C   C103      1.0  0.22937  0.58202  0.33946  1.0000
  N   N85       1.0  0.25323  0.56454  0.33974  1.0000
  C   C104      1.0  0.28473  0.57131  0.33476  1.0000
  N   N86       1.0  0.29141  0.59622  0.32799  1.0000
  C   C105      1.0  0.26872  0.61426  0.32514  1.0000
  N   N87       1.0  0.23821  0.60637  0.33127  1.0000
  C   C106      1.0  0.78087  0.42808  0.34075  1.0000
  N   N88       1.0  0.75709  0.44560  0.34053  1.0000
  C   C107      1.0  0.72558  0.43890  0.33598  1.0000
  N   N89       1.0  0.71885  0.41399  0.32981  1.0000
  C   C108      1.0  0.74151  0.39592  0.32721  1.0000
  N   N90       1.0  0.77213  0.40366  0.33336  1.0000
  C   C109      1.0  0.34070  0.31786  0.35953  1.0000
  N   N91       1.0  0.34532  0.34308  0.35299  1.0000
  C   C110      1.0  0.37534  0.35303  0.34744  1.0000
  N   N92       1.0  0.40090  0.33715  0.34810  1.0000
  C   C111      1.0  0.39729  0.31196  0.35421  1.0000
  N   N93       1.0  0.36711  0.30326  0.35998  1.0000
  C   C112      1.0  0.66935  0.69258  0.35431  1.0000
  N   N94       1.0  0.66473  0.66737  0.34796  1.0000
  C   C113      1.0  0.63471  0.65741  0.34208  1.0000
  N   N95       1.0  0.60916  0.67331  0.34223  1.0000
  C   C114      1.0  0.61278  0.69849  0.34816  1.0000
  N   N96       1.0  0.64296  0.70720  0.35427  1.0000
  C   C115      1.0  0.16936  0.81786  0.32729  1.0000
  N   N97       1.0  0.16474  0.84308  0.33380  1.0000
  C   C116      1.0  0.13472  0.85304  0.33929  1.0000
  N   N98       1.0  0.10916  0.83715  0.33864  1.0000
  C   C117      1.0  0.11277  0.81197  0.33256  1.0000
  N   N99       1.0  0.14295  0.80326  0.32683  1.0000
  C   C118      1.0  0.84071  0.19258  0.33246  1.0000
  N   N100      1.0  0.84534  0.16737  0.33880  1.0000
  C   C119      1.0  0.87536  0.15742  0.34470  1.0000
  N   N101      1.0  0.90090  0.17331  0.34456  1.0000
  C   C120      1.0  0.89728  0.19850  0.33864  1.0000
  N   N102      1.0  0.86710  0.20720  0.33251  1.0000
  C   C121      1.0  0.22870  0.25870  0.36986  1.0000
  N   N103      1.0  0.19811  0.26740  0.36522  1.0000
  C   C122      1.0  0.17254  0.25144  0.36204  1.0000
  N   N104      1.0  0.17860  0.22637  0.36216  1.0000
  C   C123      1.0  0.20838  0.21680  0.36611  1.0000
  N   N105      1.0  0.23255  0.23347  0.36973  1.0000
  C   C124      1.0  0.78146  0.75164  0.36577  1.0000
  N   N106      1.0  0.81202  0.74292  0.35993  1.0000
  C   C125      1.0  0.83761  0.75885  0.35636  1.0000
  N   N107      1.0  0.83158  0.78393  0.35719  1.0000
  C   C126      1.0  0.80184  0.79351  0.36256  1.0000
  N   N108      1.0  0.77765  0.77688  0.36663  1.0000
  C   C127      1.0  0.28136  0.75870  0.31696  1.0000
  N   N109      1.0  0.31195  0.76740  0.32157  1.0000
  C   C128      1.0  0.33752  0.75145  0.32472  1.0000
  N   N110      1.0  0.33146  0.72637  0.32460  1.0000
  C   C129      1.0  0.30169  0.71680  0.32066  1.0000
  N   N111      1.0  0.27751  0.73347  0.31707  1.0000
  C   C130      1.0  0.72860  0.25164  0.32111  1.0000
  N   N112      1.0  0.69804  0.24292  0.32689  1.0000
  C   C131      1.0  0.67246  0.25886  0.33044  1.0000
  N   N113      1.0  0.67848  0.28393  0.32963  1.0000
  C   C132      1.0  0.70822  0.29352  0.32430  1.0000
  N   N114      1.0  0.73241  0.27688  0.32025  1.0000
  C   C133      1.0  0.00549  0.31822  0.32702  1.0000
  N   N115      1.0  0.03669  0.31152  0.33552  1.0000
  C   C134      1.0  0.04567  0.28702  0.34219  1.0000
  N   N116      1.0  0.02242  0.26917  0.34124  1.0000
  C   C135      1.0  0.99101  0.27479  0.33366  1.0000
  N   N117      1.0  0.98354  0.29948  0.32693  1.0000
  C   C136      1.0  0.00479  0.69215  0.32023  1.0000
  N   N118      1.0  0.97356  0.69881  0.32862  1.0000
  C   C137      1.0  0.96451  0.72331  0.33513  1.0000
  N   N119      1.0  0.98773  0.74119  0.33418  1.0000
  C   C138      1.0  0.01915  0.73560  0.32672  1.0000
  N   N120      1.0  0.02668  0.71093  0.32013  1.0000
  C   C139      1.0  0.50458  0.81821  0.35966  1.0000
  N   N121      1.0  0.47338  0.81152  0.35119  1.0000
  C   C140      1.0  0.46440  0.78701  0.34458  1.0000
  N   N122      1.0  0.48764  0.76916  0.34554  1.0000
  C   C141      1.0  0.51906  0.77479  0.35311  1.0000
  N   N123      1.0  0.52653  0.79947  0.35980  1.0000
  C   C142      1.0  0.50528  0.19215  0.36651  1.0000
  N   N124      1.0  0.53650  0.19882  0.35814  1.0000
  C   C143      1.0  0.54554  0.22331  0.35162  1.0000
  N   N125      1.0  0.52233  0.24119  0.35256  1.0000
  C   C144      1.0  0.49090  0.23560  0.36003  1.0000
  N   N126      1.0  0.48338  0.21092  0.36663  1.0000
  C   C145      1.0  0.52624  0.98475  0.35686  1.0000
  C   C146      1.0  0.48441  0.02604  0.35732  1.0000
  N   N127      1.0  0.51658  0.02875  0.36226  1.0000
  C   C147      1.0  0.53805  0.00961  0.36241  1.0000
  N   N128      1.0  0.57082  0.01506  0.36884  1.0000
  O   O37       1.0  0.57952  0.02852  0.30401  1.0000
  O   O38       1.0  0.57666  0.02657  0.44072  1.0000
  N   N129      1.0  0.01610  0.48205  0.33451  1.0000
  C   C148      1.0  0.03724  0.50129  0.33439  1.0000
  H   H19       1.0  0.06107  0.49748  0.33835  1.0000
  N   N130      1.0  0.32662  0.05520  0.37371  1.0000
  C   C149      1.0  0.35851  0.05008  0.37689  1.0000
  H   H20       1.0  0.36621  0.03376  0.40558  1.0000
  N   N131      1.0  0.68317  0.95420  0.37858  1.0000
  C   C150      1.0  0.65126  0.95923  0.38146  1.0000
  H   H21       1.0  0.64331  0.97479  0.41472  1.0000
  C   C151      1.0  0.19607  0.57684  0.34689  1.0000
  C   C152      1.0  0.12969  0.56846  0.33907  1.0000
  N   N132      1.0  0.14259  0.58950  0.37482  1.0000
  C   C153      1.0  0.17413  0.59465  0.38239  1.0000
  N   N133      1.0  0.18360  0.61710  0.42596  1.0000
  O   O39       1.0  0.16151  0.63271  0.43776  1.0000
  O   O40       1.0  0.19413  0.61180  0.50275  1.0000
  C   C154      1.0  0.81405  0.43346  0.34801  1.0000
  C   C155      1.0  0.88042  0.44167  0.34181  1.0000
  N   N134      1.0  0.86737  0.42160  0.38378  1.0000
  C   C156      1.0  0.83571  0.41671  0.39031  1.0000
  N   N135      1.0  0.82577  0.39575  0.44094  1.0000
  O   O41       1.0  0.83997  0.37633  0.41523  1.0000
  O   O42       1.0  0.83259  0.39897  0.52242  1.0000
  C   C157      1.0  0.49513  0.16672  0.37134  1.0000
  C   C158      1.0  0.47545  0.11628  0.36492  1.0000
  N   N136      1.0  0.45691  0.13464  0.39946  1.0000
  C   C159      1.0  0.46497  0.15919  0.40535  1.0000
  N   N137      1.0  0.44313  0.17557  0.44663  1.0000
  O   O43       1.0  0.41584  0.17267  0.41319  1.0000
  O   O44       1.0  0.44115  0.17063  0.52909  1.0000
  C   C160      1.0  0.51465  0.84365  0.36477  1.0000
  C   C161      1.0  0.53431  0.89410  0.35917  1.0000
  N   N138      1.0  0.55272  0.87572  0.39415  1.0000
  C   C162      1.0  0.54467  0.85117  0.39970  1.0000
  N   N139      1.0  0.56638  0.83479  0.44158  1.0000
  O   O45       1.0  0.59379  0.83772  0.40900  1.0000
  O   O46       1.0  0.56803  0.83970  0.52411  1.0000
  N   N140      1.0  0.99569  0.64814  0.34775  1.0000
  C   C163      1.0  0.00393  0.62344  0.35085  1.0000
  H   H22       1.0  0.98850  0.61069  0.37805  1.0000
  N   N141      1.0  0.01458  0.36224  0.35458  1.0000
  C   C164      1.0  0.00636  0.38696  0.35723  1.0000
  H   H23       1.0  0.02165  0.39970  0.38504  1.0000
  C   C165      1.0  0.53803  0.51117  0.33911  1.0000
  C   C166      1.0  0.47252  0.49851  0.33930  1.0000
  N   N142      1.0  0.49600  0.48093  0.34239  1.0000
  C   C167      1.0  0.52793  0.48579  0.34259  1.0000
  N   N143      1.0  0.54969  0.46572  0.34657  1.0000
  O   O47       1.0  0.54597  0.45138  0.28037  1.0000
  O   O48       1.0  0.54553  0.45322  0.41724  1.0000
  N   N144      1.0  0.99561  0.02878  0.35062  1.0000
  C   C168      1.0  0.02735  0.02368  0.35055  1.0000
  H   H24       1.0  0.04326  0.03817  0.35309  1.0000
  N   N145      1.0  0.36620  0.42237  0.34570  1.0000
  C   C169      1.0  0.35739  0.39786  0.34797  1.0000
  H   H25       1.0  0.33380  0.39341  0.35403  1.0000
  N   N146      1.0  0.64392  0.58811  0.34291  1.0000
  C   C170      1.0  0.65269  0.61262  0.34457  1.0000
  H   H26       1.0  0.67623  0.61711  0.35167  1.0000
  C   C171      1.0  0.11318  0.93053  0.34819  1.0000
  C   C172      1.0  0.12895  0.87919  0.34348  1.0000
  N   N147      1.0  0.09842  0.88737  0.35090  1.0000
  C   C173      1.0  0.08920  0.91180  0.35381  1.0000
  N   N148      1.0  0.05652  0.91739  0.36274  1.0000
  O   O49       1.0  0.04097  0.90851  0.29792  1.0000
  O   O50       1.0  0.04563  0.90831  0.43444  1.0000
  C   C174      1.0  0.89679  0.07989  0.35198  1.0000
  C   C175      1.0  0.88110  0.13126  0.34851  1.0000
  N   N149      1.0  0.91159  0.12303  0.35701  1.0000
  C   C176      1.0  0.92074  0.09857  0.35944  1.0000
  N   N150      1.0  0.95334  0.09289  0.36979  1.0000
  O   O51       1.0  0.96930  0.10198  0.30619  1.0000
  O   O52       1.0  0.96376  0.10172  0.44243  1.0000
  C   C177      1.0  0.31031  0.55359  0.33703  1.0000
  C   C178      1.0  0.35850  0.51649  0.33795  1.0000
  N   N151      1.0  0.36519  0.54131  0.34336  1.0000
  C   C179      1.0  0.34316  0.56007  0.34342  1.0000
  N   N152      1.0  0.35401  0.58498  0.35138  1.0000
  O   O53       1.0  0.37225  0.59049  0.28733  1.0000
  O   O54       1.0  0.36891  0.58799  0.42393  1.0000
  C   C180      1.0  0.70011  0.45673  0.33794  1.0000
  C   C181      1.0  0.65217  0.49403  0.33823  1.0000
  N   N153      1.0  0.64534  0.46924  0.34445  1.0000
  C   C182      1.0  0.66724  0.45039  0.34487  1.0000
  N   N154      1.0  0.65623  0.42555  0.35367  1.0000
  O   O55       1.0  0.63784  0.41999  0.29003  1.0000
  O   O56       1.0  0.64140  0.42278  0.42645  1.0000
  N   N155      1.0  0.20652  0.02864  0.35447  1.0000
  C   C183      1.0  0.18421  0.01013  0.35402  1.0000
  H   H27       1.0  0.19147  0.99188  0.35818  1.0000
  N   N156      1.0  0.80306  0.98165  0.35439  1.0000
  C   C184      1.0  0.82525  0.00026  0.35428  1.0000
  H   H28       1.0  0.81789  0.01847  0.35910  1.0000
  C   C185      1.0  0.23363  0.14016  0.36648  1.0000
  C   C186      1.0  0.21517  0.19085  0.36711  1.0000
  N   N157      1.0  0.24564  0.18357  0.38279  1.0000
  C   C187      1.0  0.25611  0.15947  0.38372  1.0000
  N   N158      1.0  0.28844  0.15485  0.40330  1.0000
  O   O57       1.0  0.30606  0.16680  0.35010  1.0000
  O   O58       1.0  0.29482  0.16198  0.48183  1.0000
  C   C188      1.0  0.77657  0.87010  0.36477  1.0000
  C   C189      1.0  0.79512  0.81946  0.36449  1.0000
  N   N159      1.0  0.76540  0.82684  0.38872  1.0000
  C   C190      1.0  0.75496  0.85095  0.39068  1.0000
  N   N160      1.0  0.72380  0.85587  0.42141  1.0000
  O   O59       1.0  0.70400  0.84266  0.37942  1.0000
  O   O60       1.0  0.72161  0.85025  0.50326  1.0000
  N   N161      1.0  0.30719  0.64740  0.33474  1.0000
  C   C191      1.0  0.31731  0.67160  0.33447  1.0000
  H   H29       1.0  0.34075  0.67547  0.34698  1.0000
  N   N162      1.0  0.70337  0.36280  0.34435  1.0000
  C   C192      1.0  0.69319  0.33862  0.34468  1.0000
  H   H30       1.0  0.67031  0.33466  0.36350  1.0000
  C   C193      1.0  0.25647  0.27414  0.37309  1.0000
  C   C194      1.0  0.31106  0.30513  0.36613  1.0000
  N   N163      1.0  0.31231  0.28048  0.38810  1.0000
  C   C195      1.0  0.28727  0.26457  0.39358  1.0000
  N   N164      1.0  0.29352  0.23955  0.41916  1.0000
  O   O61       1.0  0.31216  0.22918  0.36444  1.0000
  O   O62       1.0  0.30586  0.23865  0.49614  1.0000
  C   C196      1.0  0.75365  0.73622  0.36890  1.0000
  C   C197      1.0  0.69902  0.70529  0.36125  1.0000
  N   N165      1.0  0.69778  0.72990  0.38362  1.0000
  C   C198      1.0  0.72286  0.74578  0.38946  1.0000
  N   N166      1.0  0.71662  0.77078  0.41527  1.0000
  O   O63       1.0  0.69801  0.78120  0.36057  1.0000
  O   O64       1.0  0.70424  0.77163  0.49221  1.0000
  N   N167      1.0  0.25532  0.79905  0.33450  1.0000
  C   C199      1.0  0.22969  0.81483  0.33765  1.0000
  H   H31       1.0  0.23286  0.83315  0.35554  1.0000
  N   N168      1.0  0.75472  0.21132  0.33909  1.0000
  C   C200      1.0  0.78037  0.19557  0.34252  1.0000
  H   H32       1.0  0.77723  0.17726  0.36063  1.0000
  C   C201      1.0  0.46720  0.25475  0.35983  1.0000
  C   C202      1.0  0.42235  0.29419  0.35576  1.0000
  N   N169      1.0  0.41396  0.26991  0.36723  1.0000
  C   C203      1.0  0.43412  0.25011  0.37006  1.0000
  N   N170      1.0  0.42081  0.22627  0.38383  1.0000
  O   O65       1.0  0.40177  0.22100  0.32135  1.0000
  O   O66       1.0  0.40574  0.22581  0.45701  1.0000
  C   C204      1.0  0.54280  0.75567  0.35307  1.0000
  C   C205      1.0  0.58771  0.71626  0.34937  1.0000
  N   N171      1.0  0.59605  0.74055  0.36109  1.0000
  C   C206      1.0  0.57585  0.76033  0.36377  1.0000
  N   N172      1.0  0.58909  0.78417  0.37799  1.0000
  O   O67       1.0  0.60824  0.78952  0.31585  1.0000
  O   O68       1.0  0.60402  0.78459  0.45139  1.0000
  N   N173      1.0  0.03412  0.77924  0.33820  1.0000
  C   C207      1.0  0.05482  0.79893  0.34035  1.0000
  H   H33       1.0  0.04635  0.81671  0.34941  1.0000
  N   N174      1.0  0.97595  0.23119  0.34525  1.0000
  C   C208      1.0  0.95522  0.21151  0.34724  1.0000
  H   H34       1.0  0.96365  0.19373  0.35644  1.0000
  C   C209      1.0  0.14039  0.26003  0.35903  1.0000
  C   C210      1.0  0.07791  0.27930  0.34890  1.0000
  N   N175      1.0  0.08396  0.25456  0.36086  1.0000
  C   C211      1.0  0.11338  0.24407  0.36668  1.0000
  N   N176      1.0  0.11545  0.21799  0.38104  1.0000
  O   O69       1.0  0.10225  0.20617  0.31812  1.0000
  O   O70       1.0  0.10225  0.21198  0.45380  1.0000
  C   C212      1.0  0.86976  0.75027  0.35266  1.0000
  C   C213      1.0  0.93225  0.73100  0.34196  1.0000
  N   N177      1.0  0.92619  0.75574  0.35409  1.0000
  C   C214      1.0  0.89678  0.76623  0.36018  1.0000
  N   N178      1.0  0.89474  0.79230  0.37481  1.0000
  O   O71       1.0  0.90788  0.80416  0.31193  1.0000
  O   O72       1.0  0.90800  0.79825  0.44755  1.0000
  N   N179      1.0  0.37563  0.78496  0.33899  1.0000
  C   C215      1.0  0.40532  0.79515  0.34393  1.0000
  H   H35       1.0  0.40770  0.81403  0.35325  1.0000
  N   N180      1.0  0.63434  0.22534  0.34556  1.0000
  C   C216      1.0  0.60464  0.21516  0.35082  1.0000
  H   H36       1.0  0.60226  0.19628  0.36016  1.0000
