data_image0
_chemical_formula_structural       C3H2CNCHCNCHC3NH2NC3H3NC2HC3H2CNCHCNCHC3NH2NC3H3NC2HC4H2C3HC3HCNCHCNCHC5NH2C3NH2NC3H3CH2NC3H3C4H2C3HC3HCNCHCNCHC5NH2C3NH2NC3H3CH2NC3H4C2H4C2HNHCNH2C3NH2NC3H3C2H4C2HNHCNH2C3NH2NC3H2C3HNC2HC3NHC3H3NHC3HNC2HC3NHC3H3NHC3HC3H3C3HC3H3C3HC3H3CNCHCNCHCNCHCNCHCNCHCNCHC3NC3NH4C3NC3NH4C3NC3NH4NC3H3NC3H3NC3H3NC3H3NC3H3NC3H3C3HC3H3C3HC3H3C3HC3H3CNCHCNCHCNCHCNCHCNCHCNCHC3NC3NH4C3NC3NH4C3NC3NH4NC3H3NC3H3NC3H3NC3H3NC3H3NC3H3
_chemical_formula_sum              "C264 H192 N72"
_cell_length_a       46.1889
_cell_length_b       46.1889
_cell_length_c       14.7615
_cell_angle_alpha    90
_cell_angle_beta     90
_cell_angle_gamma    120

_space_group_name_H-M_alt    "P 1"
_space_group_IT_number       1

loop_
  _space_group_symop_operation_xyz
  'x, y, z'

loop_
  _atom_site_type_symbol
  _atom_site_label
  _atom_site_symmetry_multiplicity
  _atom_site_fract_x
  _atom_site_fract_y
  _atom_site_fract_z
  _atom_site_occupancy
  C   C1        1.0  0.03017  0.26666  0.35810  1.0000
  C   C2        1.0  0.08478  0.32073  0.37552  1.0000
  C   C3        1.0  0.04993  0.30237  0.35716  1.0000
  H   H1        1.0  0.03889  0.31624  0.34324  1.0000
  H   H2        1.0  0.14999  0.34295  0.39997  1.0000
  C   C4        1.0  0.16240  0.24823  0.34562  1.0000
  N   N1        1.0  0.11450  0.25012  0.29224  1.0000
  C   C5        1.0  0.14165  0.24692  0.27332  1.0000
  H   H3        1.0  0.15062  0.25169  0.20847  1.0000
  C   C6        1.0  0.10235  0.35635  0.37099  1.0000
  N   N2        1.0  0.14180  0.40006  0.27537  1.0000
  C   C7        1.0  0.11143  0.37188  0.28507  1.0000
  H   H4        1.0  0.09934  0.35918  0.22765  1.0000
  C   C8        1.0  0.04949  0.25038  0.36598  1.0000
  C   C9        1.0  0.08425  0.26701  0.38526  1.0000
  C   C10       1.0  0.10196  0.30270  0.39293  1.0000
  N   N3        1.0  0.13562  0.31934  0.40993  1.0000
  H   H5        1.0  0.14700  0.30835  0.43374  1.0000
  H   H6        1.0  0.03823  0.22510  0.35899  1.0000
  N   N4        1.0  0.15004  0.24744  0.43009  1.0000
  C   C11       1.0  0.12017  0.24556  0.44920  1.0000
  C   C12       1.0  0.10194  0.24917  0.37658  1.0000
  C   C13       1.0  0.11097  0.24555  0.54517  1.0000
  H   H7        1.0  0.12830  0.24309  0.59049  1.0000
  H   H8        1.0  0.08591  0.22449  0.55715  1.0000
  H   H9        1.0  0.11123  0.26867  0.56198  1.0000
  N   N5        1.0  0.12320  0.37426  0.44017  1.0000
  C   C14       1.0  0.15184  0.40448  0.43296  1.0000
  C   C15       1.0  0.16322  0.41734  0.34438  1.0000
  H   H10       1.0  0.15895  0.40377  0.57576  1.0000
  C   C16       1.0  0.03017  0.76666  0.35810  1.0000
  C   C17       1.0  0.08478  0.82073  0.37552  1.0000
  C   C18       1.0  0.04993  0.80237  0.35716  1.0000
  H   H11       1.0  0.03889  0.81624  0.34324  1.0000
  H   H12       1.0  0.14999  0.84295  0.39997  1.0000
  C   C19       1.0  0.16240  0.74823  0.34562  1.0000
  N   N6        1.0  0.11450  0.75012  0.29224  1.0000
  C   C20       1.0  0.14165  0.74692  0.27332  1.0000
  H   H13       1.0  0.15062  0.75169  0.20847  1.0000
  C   C21       1.0  0.10235  0.85635  0.37099  1.0000
  N   N7        1.0  0.14180  0.90006  0.27537  1.0000
  C   C22       1.0  0.11143  0.87188  0.28507  1.0000
  H   H14       1.0  0.09934  0.85918  0.22765  1.0000
  C   C23       1.0  0.04949  0.75038  0.36598  1.0000
  C   C24       1.0  0.08425  0.76701  0.38526  1.0000
  C   C25       1.0  0.10196  0.80270  0.39293  1.0000
  N   N8        1.0  0.13562  0.81934  0.40993  1.0000
  H   H15       1.0  0.14700  0.80835  0.43374  1.0000
  H   H16       1.0  0.03823  0.72510  0.35899  1.0000
  N   N9        1.0  0.15004  0.74744  0.43009  1.0000
  C   C26       1.0  0.12017  0.74556  0.44920  1.0000
  C   C27       1.0  0.10195  0.74917  0.37658  1.0000
  C   C28       1.0  0.11097  0.74555  0.54517  1.0000
  H   H17       1.0  0.12830  0.74309  0.59049  1.0000
  H   H18       1.0  0.08591  0.72449  0.55715  1.0000
  H   H19       1.0  0.11123  0.76867  0.56198  1.0000
  N   N10       1.0  0.12320  0.87426  0.44017  1.0000
  C   C29       1.0  0.15185  0.90448  0.43296  1.0000
  C   C30       1.0  0.16322  0.91734  0.34438  1.0000
  H   H20       1.0  0.15895  0.90377  0.57576  1.0000
  C   C31       1.0  0.27096  0.24872  0.35748  1.0000
  C   C32       1.0  0.25245  0.26650  0.35017  1.0000
  C   C33       1.0  0.19793  0.26650  0.33756  1.0000
  C   C34       1.0  0.21665  0.25001  0.34867  1.0000
  H   H21       1.0  0.20285  0.22468  0.35402  1.0000
  H   H22       1.0  0.17578  0.30856  0.30321  1.0000
  C   C35       1.0  0.27107  0.02611  0.35155  1.0000
  C   C36       1.0  0.25486  0.04565  0.35032  1.0000
  C   C37       1.0  0.27194  0.08108  0.34693  1.0000
  H   H23       1.0  0.22946  0.03417  0.34677  1.0000
  C   C38       1.0  0.25269  0.48984  0.34494  1.0000
  C   C39       1.0  0.25133  0.43586  0.31056  1.0000
  C   C40       1.0  0.26845  0.47009  0.33562  1.0000
  H   H24       1.0  0.21183  0.38003  0.22514  1.0000
  C   C41       1.0  0.26751  0.41669  0.32213  1.0000
  N   N11       1.0  0.27205  0.37075  0.26359  1.0000
  C   C42       1.0  0.27392  0.40078  0.24932  1.0000
  H   H25       1.0  0.27362  0.40810  0.18412  1.0000
  C   C43       1.0  0.25373  0.09848  0.35082  1.0000
  N   N12       1.0  0.25773  0.14877  0.29323  1.0000
  C   C44       1.0  0.25468  0.11836  0.27656  1.0000
  H   H26       1.0  0.26060  0.11393  0.21324  1.0000
  C   C45       1.0  0.27217  0.19560  0.38606  1.0000
  C   C46       1.0  0.25511  0.21317  0.36569  1.0000
  C   C47       1.0  0.26842  0.30224  0.34940  1.0000
  C   C48       1.0  0.25112  0.32035  0.34406  1.0000
  C   C49       1.0  0.21558  0.30218  0.33435  1.0000
  N   N13       1.0  0.19858  0.31908  0.32385  1.0000
  H   H27       1.0  0.20887  0.34270  0.33194  1.0000
  H   H28       1.0  0.22988  0.19876  0.35859  1.0000
  C   C50       1.0  0.21700  0.47033  0.34884  1.0000
  C   C51       1.0  0.19819  0.43595  0.32530  1.0000
  C   C52       1.0  0.21595  0.41952  0.29710  1.0000
  N   N14       1.0  0.19974  0.38821  0.26009  1.0000
  H   H29       1.0  0.17594  0.37557  0.25098  1.0000
  H   H30       1.0  0.20351  0.48118  0.36883  1.0000
  N   N15       1.0  0.26345  0.40158  0.40421  1.0000
  C   C53       1.0  0.26559  0.37360  0.42091  1.0000
  C   C54       1.0  0.26892  0.35601  0.34600  1.0000
  C   C55       1.0  0.25859  0.35991  0.51405  1.0000
  H   H31       1.0  0.25717  0.37729  0.56154  1.0000
  H   H32       1.0  0.27858  0.35547  0.53623  1.0000
  H   H33       1.0  0.23488  0.33641  0.51638  1.0000
  C   C56       1.0  0.17235  0.41805  0.51579  1.0000
  H   H34       1.0  0.17850  0.44391  0.52575  1.0000
  H   H35       1.0  0.19542  0.41713  0.50982  1.0000
  N   N16       1.0  0.25136  0.10999  0.43397  1.0000
  C   C57       1.0  0.24959  0.13821  0.45020  1.0000
  C   C58       1.0  0.25500  0.16011  0.37629  1.0000
  C   C59       1.0  0.24734  0.14720  0.54507  1.0000
  H   H36       1.0  0.24380  0.12730  0.59158  1.0000
  H   H37       1.0  0.22606  0.15116  0.55200  1.0000
  H   H38       1.0  0.27003  0.17002  0.56479  1.0000
  C   C60       1.0  0.27096  0.74873  0.35748  1.0000
  C   C61       1.0  0.25245  0.76651  0.35017  1.0000
  C   C62       1.0  0.19793  0.76650  0.33756  1.0000
  C   C63       1.0  0.21665  0.75001  0.34867  1.0000
  H   H39       1.0  0.20285  0.72468  0.35402  1.0000
  H   H40       1.0  0.17578  0.80856  0.30321  1.0000
  C   C64       1.0  0.27108  0.52611  0.35155  1.0000
  C   C65       1.0  0.25486  0.54565  0.35032  1.0000
  C   C66       1.0  0.27194  0.58108  0.34693  1.0000
  H   H41       1.0  0.22947  0.53417  0.34677  1.0000
  C   C67       1.0  0.25269  0.98984  0.34494  1.0000
  C   C68       1.0  0.25133  0.93586  0.31056  1.0000
  C   C69       1.0  0.26845  0.97009  0.33562  1.0000
  H   H42       1.0  0.21183  0.88004  0.22514  1.0000
  C   C70       1.0  0.26751  0.91669  0.32213  1.0000
  N   N17       1.0  0.27205  0.87075  0.26359  1.0000
  C   C71       1.0  0.27392  0.90078  0.24932  1.0000
  H   H43       1.0  0.27362  0.90810  0.18412  1.0000
  C   C72       1.0  0.25373  0.59848  0.35082  1.0000
  N   N18       1.0  0.25773  0.64877  0.29323  1.0000
  C   C73       1.0  0.25468  0.61836  0.27656  1.0000
  H   H44       1.0  0.26060  0.61393  0.21324  1.0000
  C   C74       1.0  0.27217  0.69560  0.38606  1.0000
  C   C75       1.0  0.25511  0.71317  0.36569  1.0000
  C   C76       1.0  0.26842  0.80224  0.34940  1.0000
  C   C77       1.0  0.25112  0.82035  0.34406  1.0000
  C   C78       1.0  0.21558  0.80218  0.33435  1.0000
  N   N19       1.0  0.19858  0.81908  0.32385  1.0000
  H   H45       1.0  0.20887  0.84270  0.33194  1.0000
  H   H46       1.0  0.22988  0.69876  0.35859  1.0000
  C   C79       1.0  0.21701  0.97033  0.34884  1.0000
  C   C80       1.0  0.19819  0.93595  0.32530  1.0000
  C   C81       1.0  0.21595  0.91951  0.29710  1.0000
  N   N20       1.0  0.19974  0.88821  0.26009  1.0000
  H   H47       1.0  0.17594  0.87557  0.25098  1.0000
  H   H48       1.0  0.20351  0.98118  0.36883  1.0000
  N   N21       1.0  0.26345  0.90158  0.40421  1.0000
  C   C82       1.0  0.26559  0.87360  0.42091  1.0000
  C   C83       1.0  0.26892  0.85601  0.34600  1.0000
  C   C84       1.0  0.25859  0.85991  0.51405  1.0000
  H   H49       1.0  0.25717  0.87730  0.56154  1.0000
  H   H50       1.0  0.27858  0.85547  0.53623  1.0000
  H   H51       1.0  0.23488  0.83641  0.51638  1.0000
  C   C85       1.0  0.17235  0.91805  0.51579  1.0000
  H   H52       1.0  0.17850  0.94391  0.52575  1.0000
  H   H53       1.0  0.19542  0.91713  0.50982  1.0000
  N   N22       1.0  0.25136  0.60999  0.43397  1.0000
  C   C86       1.0  0.24960  0.63821  0.45020  1.0000
  C   C87       1.0  0.25500  0.66011  0.37629  1.0000
  C   C88       1.0  0.24734  0.64720  0.54507  1.0000
  H   H54       1.0  0.24380  0.62730  0.59158  1.0000
  H   H55       1.0  0.22606  0.65116  0.55200  1.0000
  H   H56       1.0  0.27003  0.67002  0.56479  1.0000
  H   H57       1.0  0.38143  0.17708  0.24014  1.0000
  C   C89       1.0  0.30670  0.26494  0.35431  1.0000
  C   C90       1.0  0.32548  0.24895  0.37373  1.0000
  H   H58       1.0  0.32031  0.28974  0.33894  1.0000
  H   H59       1.0  0.34820  0.20731  0.41661  1.0000
  H   H60       1.0  0.29364  0.48074  0.34375  1.0000
  H   H61       1.0  0.31489  0.14574  0.32800  1.0000
  C   C91       1.0  0.36100  0.26693  0.36514  1.0000
  C   C92       1.0  0.37520  0.27036  0.27818  1.0000
  H   H62       1.0  0.36146  0.26762  0.22118  1.0000
  N   N23       1.0  0.37457  0.11014  0.27075  1.0000
  H   H63       1.0  0.37732  0.20863  0.26682  1.0000
  C   C93       1.0  0.30776  0.21408  0.39545  1.0000
  N   N24       1.0  0.32433  0.19768  0.42006  1.0000
  H   H64       1.0  0.31305  0.17615  0.44924  1.0000
  H   H65       1.0  0.29370  0.31634  0.35634  1.0000
  C   C94       1.0  0.30762  0.09883  0.35044  1.0000
  C   C95       1.0  0.32536  0.08093  0.35630  1.0000
  C   C96       1.0  0.30684  0.04549  0.35363  1.0000
  N   N25       1.0  0.32483  0.13293  0.34790  1.0000
  H   H66       1.0  0.34821  0.14602  0.36168  1.0000
  H   H67       1.0  0.32067  0.03391  0.35446  1.0000
  N   N26       1.0  0.38017  0.26654  0.43486  1.0000
  C   C97       1.0  0.38017  0.11869  0.42832  1.0000
  C   C98       1.0  0.36101  0.09833  0.35418  1.0000
  C   C99       1.0  0.36799  0.11153  0.52291  1.0000
  H   H68       1.0  0.36363  0.08688  0.54249  1.0000
  H   H69       1.0  0.34470  0.11198  0.52971  1.0000
  H   H70       1.0  0.38143  0.67708  0.24014  1.0000
  C   C100      1.0  0.30670  0.76494  0.35431  1.0000
  C   C101      1.0  0.32548  0.74895  0.37373  1.0000
  H   H71       1.0  0.32031  0.78974  0.33894  1.0000
  H   H72       1.0  0.34820  0.70731  0.41661  1.0000
  H   H73       1.0  0.29364  0.98074  0.34375  1.0000
  H   H74       1.0  0.31489  0.64574  0.32800  1.0000
  C   C102      1.0  0.36100  0.76693  0.36514  1.0000
  C   C103      1.0  0.37520  0.77036  0.27818  1.0000
  H   H75       1.0  0.36146  0.76762  0.22118  1.0000
  N   N27       1.0  0.37458  0.61014  0.27075  1.0000
  H   H76       1.0  0.37732  0.70863  0.26682  1.0000
  C   C104      1.0  0.30776  0.71408  0.39545  1.0000
  N   N28       1.0  0.32433  0.69768  0.42006  1.0000
  H   H77       1.0  0.31306  0.67615  0.44924  1.0000
  H   H78       1.0  0.29370  0.81634  0.35634  1.0000
  C   C105      1.0  0.30762  0.59883  0.35044  1.0000
  C   C106      1.0  0.32536  0.58093  0.35630  1.0000
  C   C107      1.0  0.30684  0.54549  0.35363  1.0000
  N   N29       1.0  0.32483  0.63293  0.34790  1.0000
  H   H79       1.0  0.34821  0.64602  0.36168  1.0000
  H   H80       1.0  0.32068  0.53391  0.35446  1.0000
  N   N30       1.0  0.38017  0.76654  0.43486  1.0000
  C   C108      1.0  0.38017  0.61869  0.42832  1.0000
  C   C109      1.0  0.36101  0.59833  0.35418  1.0000
  C   C110      1.0  0.36799  0.61153  0.52291  1.0000
  H   H81       1.0  0.36363  0.58688  0.54249  1.0000
  H   H82       1.0  0.34470  0.61198  0.52971  1.0000
  C   C111      1.0  0.49406  0.24878  0.34606  1.0000
  C   C112      1.0  0.47436  0.21321  0.33862  1.0000
  C   C113      1.0  0.44002  0.19567  0.31448  1.0000
  H   H83       1.0  0.48508  0.19883  0.34859  1.0000
  N   N31       1.0  0.40323  0.26786  0.26951  1.0000
  C   C114      1.0  0.42136  0.16028  0.32665  1.0000
  C   C115      1.0  0.40459  0.13807  0.25426  1.0000
  H   H84       1.0  0.41061  0.14585  0.18863  1.0000
  C   C116      1.0  0.42318  0.21429  0.30133  1.0000
  C   C117      1.0  0.43993  0.24900  0.32512  1.0000
  C   C118      1.0  0.47453  0.26498  0.34672  1.0000
  N   N32       1.0  0.39085  0.19826  0.27103  1.0000
  H   H85       1.0  0.48550  0.28961  0.36395  1.0000
  C   C119      1.0  0.41031  0.26790  0.42768  1.0000
  C   C120      1.0  0.42173  0.26614  0.33929  1.0000
  C   C121      1.0  0.42524  0.26403  0.51231  1.0000
  H   H86       1.0  0.41185  0.26520  0.57193  1.0000
  H   H87       1.0  0.45118  0.28409  0.51746  1.0000
  H   H88       1.0  0.42440  0.23999  0.51287  1.0000
  N   N33       1.0  0.40787  0.14892  0.41019  1.0000
  H   H89       1.0  0.38626  0.12995  0.56960  1.0000
  C   C122      1.0  0.49406  0.74879  0.34606  1.0000
  C   C123      1.0  0.47436  0.71321  0.33862  1.0000
  C   C124      1.0  0.44002  0.69566  0.31448  1.0000
  H   H90       1.0  0.48509  0.69883  0.34859  1.0000
  N   N34       1.0  0.40323  0.76786  0.26951  1.0000
  C   C125      1.0  0.42136  0.66028  0.32665  1.0000
  C   C126      1.0  0.40459  0.63807  0.25426  1.0000
  H   H91       1.0  0.41061  0.64585  0.18863  1.0000
  C   C127      1.0  0.42318  0.71429  0.30133  1.0000
  C   C128      1.0  0.43993  0.74900  0.32512  1.0000
  C   C129      1.0  0.47453  0.76498  0.34672  1.0000
  N   N35       1.0  0.39085  0.69826  0.27103  1.0000
  H   H92       1.0  0.48550  0.78961  0.36395  1.0000
  C   C130      1.0  0.41031  0.76790  0.42768  1.0000
  C   C131      1.0  0.42173  0.76614  0.33929  1.0000
  C   C132      1.0  0.42524  0.76403  0.51231  1.0000
  H   H93       1.0  0.41185  0.76520  0.57193  1.0000
  H   H94       1.0  0.45118  0.78409  0.51746  1.0000
  H   H95       1.0  0.42440  0.73999  0.51287  1.0000
  N   N36       1.0  0.40787  0.64892  0.41019  1.0000
  H   H96       1.0  0.38626  0.62996  0.56960  1.0000
  C   C133      1.0  0.99406  0.24878  0.34606  1.0000
  C   C134      1.0  0.97436  0.21321  0.33862  1.0000
  C   C135      1.0  0.94001  0.19567  0.31448  1.0000
  H   H97       1.0  0.98509  0.19883  0.34859  1.0000
  C   C136      1.0  0.53017  0.26666  0.35810  1.0000
  C   C137      1.0  0.58478  0.32073  0.37552  1.0000
  C   C138      1.0  0.54993  0.30237  0.35716  1.0000
  H   H98       1.0  0.53889  0.31624  0.34324  1.0000
  H   H99       1.0  0.64999  0.34295  0.39997  1.0000
  H   H100      1.0  0.88143  0.17708  0.24014  1.0000
  C   C139      1.0  0.77096  0.24872  0.35748  1.0000
  C   C140      1.0  0.80670  0.26494  0.35431  1.0000
  C   C141      1.0  0.82548  0.24895  0.37373  1.0000
  H   H101      1.0  0.82031  0.28974  0.33894  1.0000
  C   C142      1.0  0.75245  0.26650  0.35017  1.0000
  C   C143      1.0  0.69793  0.26650  0.33756  1.0000
  C   C144      1.0  0.71665  0.25001  0.34867  1.0000
  H   H102      1.0  0.70285  0.22468  0.35402  1.0000
  H   H103      1.0  0.67578  0.30856  0.30321  1.0000
  H   H104      1.0  0.84820  0.20731  0.41661  1.0000
  C   C145      1.0  0.77107  0.02611  0.35155  1.0000
  C   C146      1.0  0.75486  0.04565  0.35032  1.0000
  C   C147      1.0  0.77194  0.08108  0.34693  1.0000
  H   H105      1.0  0.72947  0.03417  0.34677  1.0000
  C   C148      1.0  0.75269  0.48984  0.34494  1.0000
  C   C149      1.0  0.75133  0.43586  0.31056  1.0000
  C   C150      1.0  0.76845  0.47009  0.33562  1.0000
  H   H106      1.0  0.79364  0.48074  0.34375  1.0000
  H   H107      1.0  0.71183  0.38003  0.22514  1.0000
  H   H108      1.0  0.81489  0.14574  0.32800  1.0000
  C   C151      1.0  0.66240  0.24823  0.34562  1.0000
  N   N37       1.0  0.61450  0.25012  0.29224  1.0000
  C   C152      1.0  0.64165  0.24692  0.27332  1.0000
  H   H109      1.0  0.65062  0.25169  0.20847  1.0000
  C   C153      1.0  0.76751  0.41669  0.32213  1.0000
  N   N38       1.0  0.77205  0.37075  0.26359  1.0000
  C   C154      1.0  0.77392  0.40078  0.24932  1.0000
  H   H110      1.0  0.77362  0.40810  0.18412  1.0000
  C   C155      1.0  0.60235  0.35635  0.37099  1.0000
  N   N39       1.0  0.64180  0.40006  0.27537  1.0000
  C   C156      1.0  0.61143  0.37188  0.28507  1.0000
  H   H111      1.0  0.59934  0.35918  0.22765  1.0000
  C   C157      1.0  0.86100  0.26693  0.36514  1.0000
  N   N40       1.0  0.90324  0.26786  0.26951  1.0000
  C   C158      1.0  0.87520  0.27036  0.27818  1.0000
  H   H112      1.0  0.86146  0.26762  0.22118  1.0000
  C   C159      1.0  0.75373  0.09848  0.35082  1.0000
  N   N41       1.0  0.75773  0.14877  0.29323  1.0000
  C   C160      1.0  0.75468  0.11836  0.27656  1.0000
  H   H113      1.0  0.76060  0.11393  0.21324  1.0000
  C   C161      1.0  0.92136  0.16028  0.32665  1.0000
  N   N42       1.0  0.87458  0.11014  0.27075  1.0000
  C   C162      1.0  0.90459  0.13807  0.25426  1.0000
  H   H114      1.0  0.91061  0.14585  0.18863  1.0000
  C   C163      1.0  0.92318  0.21429  0.30133  1.0000
  C   C164      1.0  0.93993  0.24900  0.32512  1.0000
  C   C165      1.0  0.97453  0.26498  0.34672  1.0000
  N   N43       1.0  0.89085  0.19826  0.27103  1.0000
  C   C166      1.0  0.54949  0.25038  0.36598  1.0000
  C   C167      1.0  0.58425  0.26701  0.38526  1.0000
  C   C168      1.0  0.60196  0.30270  0.39293  1.0000
  N   N44       1.0  0.63562  0.31934  0.40993  1.0000
  H   H115      1.0  0.64700  0.30835  0.43374  1.0000
  H   H116      1.0  0.87732  0.20863  0.26682  1.0000
  H   H117      1.0  0.98550  0.28961  0.36395  1.0000
  H   H118      1.0  0.53824  0.22510  0.35899  1.0000
  C   C169      1.0  0.80776  0.21408  0.39545  1.0000
  C   C170      1.0  0.77217  0.19560  0.38606  1.0000
  C   C171      1.0  0.75511  0.21317  0.36569  1.0000
  N   N45       1.0  0.82433  0.19768  0.42006  1.0000
  C   C172      1.0  0.76842  0.30224  0.34940  1.0000
  C   C173      1.0  0.75112  0.32035  0.34406  1.0000
  C   C174      1.0  0.71558  0.30218  0.33435  1.0000
  N   N46       1.0  0.69858  0.31908  0.32385  1.0000
  H   H119      1.0  0.70887  0.34270  0.33194  1.0000
  H   H120      1.0  0.81305  0.17615  0.44924  1.0000
  H   H121      1.0  0.72988  0.19876  0.35859  1.0000
  H   H122      1.0  0.79370  0.31634  0.35634  1.0000
  C   C175      1.0  0.80762  0.09883  0.35044  1.0000
  C   C176      1.0  0.82536  0.08093  0.35630  1.0000
  C   C177      1.0  0.80684  0.04549  0.35363  1.0000
  N   N47       1.0  0.82483  0.13293  0.34790  1.0000
  C   C178      1.0  0.71701  0.47033  0.34884  1.0000
  C   C179      1.0  0.69819  0.43595  0.32530  1.0000
  C   C180      1.0  0.71596  0.41952  0.29710  1.0000
  N   N48       1.0  0.69974  0.38821  0.26009  1.0000
  H   H123      1.0  0.67594  0.37557  0.25098  1.0000
  H   H124      1.0  0.84821  0.14602  0.36168  1.0000
  H   H125      1.0  0.82068  0.03391  0.35446  1.0000
  H   H126      1.0  0.70351  0.48118  0.36883  1.0000
  N   N49       1.0  0.65004  0.24744  0.43009  1.0000
  C   C181      1.0  0.62017  0.24556  0.44920  1.0000
  C   C182      1.0  0.60194  0.24917  0.37658  1.0000
  C   C183      1.0  0.61097  0.24555  0.54517  1.0000
  H   H127      1.0  0.62830  0.24309  0.59049  1.0000
  H   H128      1.0  0.58591  0.22449  0.55715  1.0000
  H   H129      1.0  0.61123  0.26867  0.56198  1.0000
  N   N50       1.0  0.76345  0.40158  0.40421  1.0000
  C   C184      1.0  0.76559  0.37360  0.42091  1.0000
  C   C185      1.0  0.76892  0.35601  0.34600  1.0000
  C   C186      1.0  0.75859  0.35991  0.51405  1.0000
  H   H130      1.0  0.75717  0.37729  0.56154  1.0000
  H   H131      1.0  0.77857  0.35547  0.53623  1.0000
  H   H132      1.0  0.73488  0.33641  0.51638  1.0000
  N   N51       1.0  0.62320  0.37426  0.44017  1.0000
  C   C187      1.0  0.65185  0.40448  0.43296  1.0000
  C   C188      1.0  0.66322  0.41734  0.34438  1.0000
  C   C189      1.0  0.67235  0.41805  0.51579  1.0000
  H   H133      1.0  0.65895  0.40377  0.57576  1.0000
  H   H134      1.0  0.67850  0.44391  0.52575  1.0000
  H   H135      1.0  0.69542  0.41713  0.50982  1.0000
  N   N52       1.0  0.88017  0.26654  0.43486  1.0000
  C   C190      1.0  0.91031  0.26790  0.42768  1.0000
  C   C191      1.0  0.92172  0.26614  0.33929  1.0000
  C   C192      1.0  0.92524  0.26403  0.51231  1.0000
  H   H136      1.0  0.91185  0.26520  0.57193  1.0000
  H   H137      1.0  0.95118  0.28409  0.51746  1.0000
  H   H138      1.0  0.92440  0.23999  0.51287  1.0000
  N   N53       1.0  0.75136  0.10999  0.43397  1.0000
  C   C193      1.0  0.74959  0.13821  0.45020  1.0000
  C   C194      1.0  0.75500  0.16011  0.37629  1.0000
  C   C195      1.0  0.74734  0.14720  0.54507  1.0000
  H   H139      1.0  0.74380  0.12730  0.59158  1.0000
  H   H140      1.0  0.72606  0.15116  0.55200  1.0000
  H   H141      1.0  0.77003  0.17002  0.56479  1.0000
  N   N54       1.0  0.90787  0.14892  0.41019  1.0000
  C   C196      1.0  0.88018  0.11869  0.42832  1.0000
  C   C197      1.0  0.86101  0.09833  0.35418  1.0000
  C   C198      1.0  0.86799  0.11153  0.52291  1.0000
  H   H142      1.0  0.88626  0.12995  0.56960  1.0000
  H   H143      1.0  0.86363  0.08688  0.54249  1.0000
  H   H144      1.0  0.84470  0.11198  0.52971  1.0000
  C   C199      1.0  0.99406  0.74879  0.34606  1.0000
  C   C200      1.0  0.97436  0.71321  0.33862  1.0000
  C   C201      1.0  0.94002  0.69566  0.31448  1.0000
  H   H145      1.0  0.98509  0.69883  0.34859  1.0000
  C   C202      1.0  0.53017  0.76666  0.35810  1.0000
  C   C203      1.0  0.58478  0.82073  0.37552  1.0000
  C   C204      1.0  0.54993  0.80237  0.35716  1.0000
  H   H146      1.0  0.53889  0.81624  0.34324  1.0000
  H   H147      1.0  0.64999  0.84295  0.39997  1.0000
  H   H148      1.0  0.88143  0.67708  0.24014  1.0000
  C   C205      1.0  0.77096  0.74873  0.35748  1.0000
  C   C206      1.0  0.80670  0.76494  0.35431  1.0000
  C   C207      1.0  0.82548  0.74895  0.37373  1.0000
  H   H149      1.0  0.82031  0.78974  0.33894  1.0000
  C   C208      1.0  0.75245  0.76651  0.35017  1.0000
  C   C209      1.0  0.69793  0.76650  0.33756  1.0000
  C   C210      1.0  0.71665  0.75001  0.34867  1.0000
  H   H150      1.0  0.70285  0.72468  0.35402  1.0000
  H   H151      1.0  0.67578  0.80856  0.30321  1.0000
  H   H152      1.0  0.84820  0.70731  0.41661  1.0000
  C   C211      1.0  0.77107  0.52611  0.35155  1.0000
  C   C212      1.0  0.75486  0.54565  0.35032  1.0000
  C   C213      1.0  0.77194  0.58108  0.34693  1.0000
  H   H153      1.0  0.72947  0.53417  0.34677  1.0000
  C   C214      1.0  0.75269  0.98984  0.34494  1.0000
  C   C215      1.0  0.75133  0.93586  0.31056  1.0000
  C   C216      1.0  0.76845  0.97009  0.33562  1.0000
  H   H154      1.0  0.79364  0.98074  0.34375  1.0000
  H   H155      1.0  0.71183  0.88004  0.22514  1.0000
  H   H156      1.0  0.81489  0.64574  0.32800  1.0000
  C   C217      1.0  0.66240  0.74823  0.34562  1.0000
  N   N55       1.0  0.61450  0.75012  0.29224  1.0000
  C   C218      1.0  0.64165  0.74692  0.27332  1.0000
  H   H157      1.0  0.65062  0.75169  0.20847  1.0000
  C   C219      1.0  0.76751  0.91669  0.32213  1.0000
  N   N56       1.0  0.77205  0.87075  0.26359  1.0000
  C   C220      1.0  0.77392  0.90078  0.24932  1.0000
  H   H158      1.0  0.77362  0.90810  0.18412  1.0000
  C   C221      1.0  0.60235  0.85635  0.37099  1.0000
  N   N57       1.0  0.64180  0.90006  0.27537  1.0000
  C   C222      1.0  0.61143  0.87188  0.28507  1.0000
  H   H159      1.0  0.59934  0.85918  0.22765  1.0000
  C   C223      1.0  0.86100  0.76693  0.36514  1.0000
  N   N58       1.0  0.90324  0.76786  0.26951  1.0000
  C   C224      1.0  0.87520  0.77036  0.27818  1.0000
  H   H160      1.0  0.86146  0.76762  0.22118  1.0000
  C   C225      1.0  0.75373  0.59848  0.35082  1.0000
  N   N59       1.0  0.75773  0.64877  0.29323  1.0000
  C   C226      1.0  0.75468  0.61836  0.27656  1.0000
  H   H161      1.0  0.76060  0.61393  0.21324  1.0000
  C   C227      1.0  0.92136  0.66028  0.32665  1.0000
  N   N60       1.0  0.87458  0.61014  0.27075  1.0000
  C   C228      1.0  0.90459  0.63807  0.25426  1.0000
  H   H162      1.0  0.91061  0.64585  0.18863  1.0000
  C   C229      1.0  0.92318  0.71429  0.30133  1.0000
  C   C230      1.0  0.93993  0.74900  0.32512  1.0000
  C   C231      1.0  0.97453  0.76498  0.34672  1.0000
  N   N61       1.0  0.89085  0.69826  0.27103  1.0000
  C   C232      1.0  0.54949  0.75038  0.36598  1.0000
  C   C233      1.0  0.58425  0.76701  0.38526  1.0000
  C   C234      1.0  0.60196  0.80270  0.39293  1.0000
  N   N62       1.0  0.63562  0.81934  0.40993  1.0000
  H   H163      1.0  0.64700  0.80835  0.43374  1.0000
  H   H164      1.0  0.87732  0.70863  0.26682  1.0000
  H   H165      1.0  0.98550  0.78961  0.36395  1.0000
  H   H166      1.0  0.53824  0.72510  0.35899  1.0000
  C   C235      1.0  0.80776  0.71408  0.39545  1.0000
  C   C236      1.0  0.77217  0.69560  0.38606  1.0000
  C   C237      1.0  0.75511  0.71317  0.36569  1.0000
  N   N63       1.0  0.82434  0.69768  0.42006  1.0000
  C   C238      1.0  0.76842  0.80224  0.34940  1.0000
  C   C239      1.0  0.75112  0.82035  0.34406  1.0000
  C   C240      1.0  0.71558  0.80218  0.33435  1.0000
  N   N64       1.0  0.69858  0.81908  0.32385  1.0000
  H   H167      1.0  0.70888  0.84270  0.33194  1.0000
  H   H168      1.0  0.81306  0.67615  0.44924  1.0000
  H   H169      1.0  0.72988  0.69876  0.35859  1.0000
  H   H170      1.0  0.79370  0.81634  0.35634  1.0000
  C   C241      1.0  0.80762  0.59883  0.35044  1.0000
  C   C242      1.0  0.82536  0.58093  0.35630  1.0000
  C   C243      1.0  0.80684  0.54549  0.35363  1.0000
  N   N65       1.0  0.82483  0.63293  0.34790  1.0000
  C   C244      1.0  0.71701  0.97033  0.34884  1.0000
  C   C245      1.0  0.69819  0.93595  0.32530  1.0000
  C   C246      1.0  0.71596  0.91951  0.29710  1.0000
  N   N66       1.0  0.69974  0.88821  0.26009  1.0000
  H   H171      1.0  0.67594  0.87557  0.25098  1.0000
  H   H172      1.0  0.84821  0.64602  0.36168  1.0000
  H   H173      1.0  0.82068  0.53391  0.35446  1.0000
  H   H174      1.0  0.70351  0.98118  0.36883  1.0000
  N   N67       1.0  0.65004  0.74744  0.43009  1.0000
  C   C247      1.0  0.62018  0.74556  0.44920  1.0000
  C   C248      1.0  0.60195  0.74917  0.37658  1.0000
  C   C249      1.0  0.61096  0.74555  0.54517  1.0000
  H   H175      1.0  0.62830  0.74309  0.59049  1.0000
  H   H176      1.0  0.58591  0.72449  0.55715  1.0000
  H   H177      1.0  0.61123  0.76867  0.56198  1.0000
  N   N68       1.0  0.76345  0.90158  0.40421  1.0000
  C   C250      1.0  0.76559  0.87360  0.42091  1.0000
  C   C251      1.0  0.76892  0.85601  0.34600  1.0000
  C   C252      1.0  0.75859  0.85991  0.51405  1.0000
  H   H178      1.0  0.75717  0.87730  0.56154  1.0000
  H   H179      1.0  0.77858  0.85547  0.53623  1.0000
  H   H180      1.0  0.73488  0.83641  0.51638  1.0000
  N   N69       1.0  0.62320  0.87426  0.44017  1.0000
  C   C253      1.0  0.65185  0.90448  0.43296  1.0000
  C   C254      1.0  0.66322  0.91734  0.34438  1.0000
  C   C255      1.0  0.67235  0.91805  0.51579  1.0000
  H   H181      1.0  0.65895  0.90377  0.57576  1.0000
  H   H182      1.0  0.67850  0.94391  0.52575  1.0000
  H   H183      1.0  0.69543  0.91713  0.50982  1.0000
  N   N70       1.0  0.88017  0.76654  0.43486  1.0000
  C   C256      1.0  0.91031  0.76790  0.42768  1.0000
  C   C257      1.0  0.92173  0.76614  0.33929  1.0000
  C   C258      1.0  0.92524  0.76403  0.51231  1.0000
  H   H184      1.0  0.91185  0.76520  0.57193  1.0000
  H   H185      1.0  0.95118  0.78409  0.51746  1.0000
  H   H186      1.0  0.92440  0.73999  0.51287  1.0000
  N   N71       1.0  0.75136  0.60999  0.43397  1.0000
  C   C259      1.0  0.74960  0.63821  0.45020  1.0000
  C   C260      1.0  0.75500  0.66011  0.37629  1.0000
  C   C261      1.0  0.74734  0.64720  0.54507  1.0000
  H   H187      1.0  0.74381  0.62730  0.59158  1.0000
  H   H188      1.0  0.72605  0.65116  0.55200  1.0000
  H   H189      1.0  0.77003  0.67002  0.56479  1.0000
  N   N72       1.0  0.90787  0.64892  0.41019  1.0000
  C   C262      1.0  0.88018  0.61869  0.42832  1.0000
  C   C263      1.0  0.86101  0.59833  0.35418  1.0000
  C   C264      1.0  0.86800  0.61153  0.52291  1.0000
  H   H190      1.0  0.88626  0.62996  0.56960  1.0000
  H   H191      1.0  0.86363  0.58688  0.54249  1.0000
  H   H192      1.0  0.84470  0.61198  0.52971  1.0000
