data_image0
_chemical_formula_structural       C3NH2NH2CH2C3NH2NH2CH2C3NH2NH2CH2C3NH2NH2CH2C3NH2NH2CH2C3NH2NH2CH2C3NH2NH2CH2C3NH2NH2CH2C3NH2NH2CH2C3NH2NH2CH2C3NH2NH2CH2C3NH2NH2CH2C3NH2NH2CH2C3NH2NH2CH2C3NH2NH2CH2C3NH2NH2CH2C3NH2NH2CH2C3NH2NH2CH2C3NH2NH2CH2C3NH2NH2CH2C3NH2NH2CH2C3NH2NH2CH2C3NH2NH2CH2C3NH2NH2CH2C3NH2NH2CH2C3NH2NH2CH2C3NH2NH2CH2C3NH2NH2CH2C3NH2NH2CH2C3NH2NH2CH2CNCNCN2HNHNHCNCNCN2HNHNHCNCNCN2HNHNHCNCNCN2HNHNHCNCNCN2HNHNHCNCNCN2HNHNHCNCNCN2HNHNHCNCNCN2HNHNHCNCNCN2HNHNHCNCNCN2HNHNHCNCNCN2HNHNHCNCNCN2HNHNHCNCNCN2HNHNHCNCNCN2HNHNHCNCNCN2HNHNHCNCNCN2HNHNHCNCNCN2HNHNHCNCNCN2HNHNHCNCNCN2HNHNHCNCNCN2HNHNHC3NH2NH2CH2C3NH2NH2CH2C3NH2NH2CH2C3NH2NH2CH2C3NH2NH2CH2C3NH2NH2CH2C3NH2NH2CH2C3NH2NH2CH2C3NH2NH2CH2C3NH2NH2CH2C3NH2NH2CH2C3NH2NH2CH2C3NH2NH2CH2C3NH2NH2CH2C3NH2NH2CH2C3NH2NH2CH2C3NH2NH2CH2C3NH2NH2CH2C3NH2NH2CH2C3NH2NH2CH2C3NH2NH2CH2C3NH2NH2CH2C3NH2NH2CH2C3NH2NH2CH2C3NH2NH2CH2C3NH2NH2CH2C3NH2NH2CH2C3NH2NH2CH2C3NH2NH2CH2C3NH2NH2CH2
_chemical_formula_sum              "C300 N240 H420"
_cell_length_a       65.4294
_cell_length_b       65.1981
_cell_length_c       15.0189
_cell_angle_alpha    90
_cell_angle_beta     90
_cell_angle_gamma    90.0026

_space_group_name_H-M_alt    "P 1"
_space_group_IT_number       1

loop_
  _space_group_symop_operation_xyz
  'x, y, z'

loop_
  _atom_site_type_symbol
  _atom_site_label
  _atom_site_symmetry_multiplicity
  _atom_site_fract_x
  _atom_site_fract_y
  _atom_site_fract_z
  _atom_site_occupancy
  C   C1        1.0  0.36049  0.03596  0.30490  1.0000
  C   C2        1.0  0.34596  0.02868  0.24124  1.0000
  C   C3        1.0  0.32633  0.02207  0.27145  1.0000
  N   N1        1.0  0.31352  0.01114  0.21700  1.0000
  H   H1        1.0  0.31818  0.00542  0.16114  1.0000
  H   H2        1.0  0.30129  0.00468  0.24037  1.0000
  N   N2        1.0  0.35078  0.02793  0.15255  1.0000
  H   H3        1.0  0.36456  0.02991  0.13060  1.0000
  H   H4        1.0  0.34058  0.02581  0.10669  1.0000
  C   C4        1.0  0.38014  0.04583  0.27523  1.0000
  H   H5        1.0  0.37794  0.05424  0.21293  1.0000
  H   H6        1.0  0.39092  0.03335  0.26252  1.0000
  C   C5        1.0  0.63563  0.97186  0.30534  1.0000
  C   C6        1.0  0.64992  0.97782  0.23818  1.0000
  C   C7        1.0  0.66988  0.98437  0.26429  1.0000
  N   N3        1.0  0.68257  0.99430  0.20581  1.0000
  H   H7        1.0  0.67771  0.99930  0.14897  1.0000
  H   H8        1.0  0.69498  0.00091  0.22635  1.0000
  N   N4        1.0  0.64451  0.97764  0.15012  1.0000
  H   H9        1.0  0.63047  0.97635  0.13055  1.0000
  H   H10       1.0  0.65442  0.97890  0.10252  1.0000
  C   C8        1.0  0.61564  0.96176  0.28210  1.0000
  H   H11       1.0  0.61600  0.95429  0.21705  1.0000
  H   H12       1.0  0.60416  0.97393  0.27910  1.0000
  C   C9        1.0  0.96617  0.36527  0.30388  1.0000
  C   C10       1.0  0.97346  0.35066  0.24048  1.0000
  C   C11       1.0  0.98007  0.33099  0.27103  1.0000
  N   N5        1.0  0.99095  0.31808  0.21681  1.0000
  H   H13       1.0  0.99665  0.32270  0.16084  1.0000
  H   H14       1.0  0.99738  0.30583  0.24038  1.0000
  N   N6        1.0  0.97424  0.35543  0.15174  1.0000
  H   H15       1.0  0.97228  0.36924  0.12960  1.0000
  H   H16       1.0  0.97638  0.34517  0.10601  1.0000
  C   C12       1.0  0.95627  0.38493  0.27392  1.0000
  H   H17       1.0  0.94797  0.38269  0.21146  1.0000
  H   H18       1.0  0.96867  0.39581  0.26145  1.0000
  C   C13       1.0  0.03083  0.63970  0.30491  1.0000
  C   C14       1.0  0.02473  0.65396  0.23770  1.0000
  C   C15       1.0  0.01800  0.67393  0.26375  1.0000
  N   N7        1.0  0.00800  0.68656  0.20521  1.0000
  H   H19       1.0  0.00308  0.68164  0.14835  1.0000
  H   H20       1.0  0.00131  0.69897  0.22568  1.0000
  N   N8        1.0  0.02497  0.64852  0.14966  1.0000
  H   H21       1.0  0.02641  0.63445  0.13013  1.0000
  H   H22       1.0  0.02361  0.65844  0.10202  1.0000
  C   C16       1.0  0.04108  0.61974  0.28173  1.0000
  H   H23       1.0  0.04856  0.62018  0.21673  1.0000
  H   H24       1.0  0.02904  0.60812  0.27849  1.0000
  C   C17       1.0  0.17966  0.53766  0.30418  1.0000
  C   C18       1.0  0.16840  0.54956  0.24151  1.0000
  C   C19       1.0  0.15098  0.56092  0.27071  1.0000
  N   N9        1.0  0.17316  0.54846  0.15282  1.0000
  H   H25       1.0  0.18252  0.53813  0.13048  1.0000
  H   H26       1.0  0.16406  0.55385  0.10759  1.0000
  N   N10       1.0  0.14281  0.57586  0.21728  1.0000
  H   H27       1.0  0.13241  0.58519  0.23889  1.0000
  H   H28       1.0  0.14999  0.58072  0.16489  1.0000
  C   C20       1.0  0.20169  0.53225  0.28675  1.0000
  H   H29       1.0  0.20766  0.53881  0.22510  1.0000
  H   H30       1.0  0.20305  0.51559  0.28105  1.0000
  C   C21       1.0  0.81867  0.46937  0.29226  1.0000
  C   C22       1.0  0.82910  0.45681  0.22924  1.0000
  C   C23       1.0  0.84698  0.44589  0.25601  1.0000
  N   N11       1.0  0.82308  0.45678  0.14190  1.0000
  H   H31       1.0  0.81337  0.46681  0.11973  1.0000
  H   H32       1.0  0.83158  0.45087  0.09568  1.0000
  N   N12       1.0  0.85421  0.43010  0.20468  1.0000
  H   H33       1.0  0.86481  0.42097  0.22618  1.0000
  H   H34       1.0  0.84617  0.42452  0.15616  1.0000
  C   C24       1.0  0.79637  0.47439  0.27975  1.0000
  H   H35       1.0  0.78966  0.46726  0.22082  1.0000
  H   H36       1.0  0.79471  0.49097  0.27173  1.0000
  C   C25       1.0  0.53394  0.82255  0.30480  1.0000
  C   C26       1.0  0.54580  0.83380  0.24195  1.0000
  C   C27       1.0  0.55716  0.85128  0.27092  1.0000
  N   N13       1.0  0.54467  0.82899  0.15330  1.0000
  H   H37       1.0  0.53434  0.81962  0.13107  1.0000
  H   H38       1.0  0.55005  0.83810  0.10798  1.0000
  N   N14       1.0  0.57205  0.85943  0.21734  1.0000
  H   H39       1.0  0.58136  0.86987  0.23883  1.0000
  H   H40       1.0  0.57686  0.85219  0.16501  1.0000
  C   C28       1.0  0.52846  0.80046  0.28749  1.0000
  H   H41       1.0  0.53496  0.79443  0.22585  1.0000
  H   H42       1.0  0.51185  0.79916  0.28188  1.0000
  C   C29       1.0  0.46484  0.18364  0.29320  1.0000
  C   C30       1.0  0.45224  0.17326  0.23022  1.0000
  C   C31       1.0  0.44123  0.15540  0.25702  1.0000
  N   N15       1.0  0.45225  0.17929  0.14286  1.0000
  H   H43       1.0  0.46231  0.18894  0.12063  1.0000
  H   H44       1.0  0.44629  0.17079  0.09667  1.0000
  N   N16       1.0  0.42544  0.14824  0.20573  1.0000
  H   H45       1.0  0.41627  0.13768  0.22726  1.0000
  H   H46       1.0  0.41992  0.15636  0.15724  1.0000
  C   C32       1.0  0.47004  0.20597  0.28055  1.0000
  H   H47       1.0  0.46297  0.21274  0.22163  1.0000
  H   H48       1.0  0.48658  0.20748  0.27238  1.0000
  C   C33       1.0  0.20493  0.09578  0.29950  1.0000
  C   C34       1.0  0.18922  0.10478  0.24611  1.0000
  C   C35       1.0  0.17577  0.11959  0.28460  1.0000
  N   N17       1.0  0.18851  0.10120  0.15619  1.0000
  H   H49       1.0  0.19966  0.09449  0.12538  1.0000
  H   H50       1.0  0.18004  0.10939  0.11697  1.0000
  N   N18       1.0  0.15833  0.12553  0.24114  1.0000
  H   H51       1.0  0.14827  0.13427  0.26945  1.0000
  H   H52       1.0  0.15315  0.11783  0.19078  1.0000
  C   C36       1.0  0.21629  0.07700  0.26857  1.0000
  H   H53       1.0  0.23187  0.08177  0.25209  1.0000
  H   H54       1.0  0.20984  0.07001  0.20882  1.0000
  C   C37       1.0  0.79181  0.91053  0.29842  1.0000
  C   C38       1.0  0.80763  0.90169  0.24511  1.0000
  C   C39       1.0  0.82131  0.88714  0.28385  1.0000
  N   N19       1.0  0.80823  0.90515  0.15509  1.0000
  H   H55       1.0  0.79697  0.91163  0.12421  1.0000
  H   H56       1.0  0.81681  0.89704  0.11601  1.0000
  N   N20       1.0  0.83883  0.88141  0.24041  1.0000
  H   H57       1.0  0.84904  0.87287  0.26888  1.0000
  H   H58       1.0  0.84388  0.88914  0.18984  1.0000
  C   C40       1.0  0.78019  0.92913  0.26715  1.0000
  H   H59       1.0  0.76466  0.92417  0.25100  1.0000
  H   H60       1.0  0.78655  0.93610  0.20717  1.0000
  C   C41       1.0  0.90629  0.20951  0.29929  1.0000
  C   C42       1.0  0.89721  0.19380  0.24592  1.0000
  C   C43       1.0  0.88238  0.18040  0.28445  1.0000
  N   N21       1.0  0.90076  0.19308  0.15598  1.0000
  H   H61       1.0  0.90752  0.20422  0.12517  1.0000
  H   H62       1.0  0.89254  0.18463  0.11677  1.0000
  N   N22       1.0  0.87634  0.16294  0.24096  1.0000
  H   H63       1.0  0.86757  0.15289  0.26927  1.0000
  H   H64       1.0  0.88397  0.15769  0.19055  1.0000
  C   C44       1.0  0.92507  0.22080  0.26831  1.0000
  H   H65       1.0  0.92040  0.23645  0.25177  1.0000
  H   H66       1.0  0.93199  0.21427  0.20858  1.0000
  C   C45       1.0  0.09156  0.79592  0.29742  1.0000
  C   C46       1.0  0.10057  0.81171  0.24433  1.0000
  C   C47       1.0  0.11528  0.82521  0.28322  1.0000
  N   N23       1.0  0.09711  0.81246  0.15435  1.0000
  H   H67       1.0  0.09046  0.80128  0.12331  1.0000
  H   H68       1.0  0.10530  0.82098  0.11535  1.0000
  N   N24       1.0  0.12121  0.84274  0.24003  1.0000
  H   H69       1.0  0.12988  0.85284  0.26859  1.0000
  H   H70       1.0  0.11357  0.84796  0.18960  1.0000
  C   C48       1.0  0.07286  0.78454  0.26602  1.0000
  H   H71       1.0  0.07762  0.76891  0.24943  1.0000
  H   H72       1.0  0.06597  0.79108  0.20626  1.0000
  C   C49       1.0  0.31794  0.62738  0.29368  1.0000
  C   C50       1.0  0.30278  0.61713  0.24227  1.0000
  C   C51       1.0  0.29021  0.60201  0.28360  1.0000
  N   N25       1.0  0.27230  0.59624  0.24344  1.0000
  H   H73       1.0  0.26682  0.60380  0.19322  1.0000
  H   H74       1.0  0.26224  0.58806  0.27469  1.0000
  N   N26       1.0  0.30153  0.62051  0.15243  1.0000
  H   H75       1.0  0.31218  0.62792  0.12106  1.0000
  H   H76       1.0  0.29350  0.61162  0.11418  1.0000
  C   C52       1.0  0.32530  0.64836  0.26629  1.0000
  H   H77       1.0  0.31770  0.65423  0.20677  1.0000
  H   H78       1.0  0.34162  0.64752  0.25114  1.0000
  C   C53       1.0  0.68086  0.37935  0.29647  1.0000
  C   C54       1.0  0.69600  0.38957  0.24481  1.0000
  C   C55       1.0  0.70879  0.40451  0.28614  1.0000
  N   N27       1.0  0.72661  0.41029  0.24524  1.0000
  H   H79       1.0  0.73191  0.40281  0.19442  1.0000
  H   H80       1.0  0.73678  0.41839  0.27617  1.0000
  N   N28       1.0  0.69701  0.38636  0.15479  1.0000
  H   H81       1.0  0.68622  0.37910  0.12363  1.0000
  H   H82       1.0  0.70502  0.39525  0.11649  1.0000
  C   C56       1.0  0.67323  0.35851  0.26857  1.0000
  H   H83       1.0  0.68068  0.35267  0.20862  1.0000
  H   H84       1.0  0.65690  0.35955  0.25394  1.0000
  C   C57       1.0  0.62352  0.68451  0.29239  1.0000
  C   C58       1.0  0.61311  0.69966  0.24140  1.0000
  C   C59       1.0  0.59792  0.71205  0.28314  1.0000
  N   N29       1.0  0.59200  0.73004  0.24355  1.0000
  H   H85       1.0  0.59948  0.73569  0.19348  1.0000
  H   H86       1.0  0.58379  0.74001  0.27521  1.0000
  N   N30       1.0  0.61643  0.70109  0.15158  1.0000
  H   H87       1.0  0.62393  0.69053  0.11989  1.0000
  H   H88       1.0  0.60748  0.70909  0.11361  1.0000
  C   C60       1.0  0.64449  0.67741  0.26473  1.0000
  H   H89       1.0  0.65023  0.68513  0.20523  1.0000
  H   H90       1.0  0.64386  0.66104  0.24943  1.0000
  C   C61       1.0  0.37498  0.32115  0.29565  1.0000
  C   C62       1.0  0.38534  0.30602  0.24427  1.0000
  C   C63       1.0  0.40039  0.29343  0.28580  1.0000
  N   N31       1.0  0.40631  0.27553  0.24540  1.0000
  H   H91       1.0  0.39888  0.27005  0.19485  1.0000
  H   H92       1.0  0.41449  0.26546  0.27660  1.0000
  N   N32       1.0  0.38211  0.30483  0.15431  1.0000
  H   H93       1.0  0.37473  0.31552  0.12291  1.0000
  H   H94       1.0  0.39105  0.29685  0.11617  1.0000
  C   C64       1.0  0.35413  0.32854  0.26766  1.0000
  H   H95       1.0  0.34838  0.32096  0.20785  1.0000
  H   H96       1.0  0.35499  0.34492  0.25274  1.0000
  C   C65       1.0  0.21847  0.91509  0.29167  1.0000
  C   C66       1.0  0.21143  0.92977  0.22815  1.0000
  C   C67       1.0  0.20930  0.95074  0.25385  1.0000
  N   N33       1.0  0.19848  0.96414  0.20167  1.0000
  H   H97       1.0  0.18996  0.95930  0.15325  1.0000
  H   H98       1.0  0.19509  0.97780  0.22253  1.0000
  N   N34       1.0  0.20884  0.92422  0.14090  1.0000
  H   H99       1.0  0.21381  0.91117  0.11876  1.0000
  H   H100      1.0  0.20701  0.93438  0.09447  1.0000
  C   C68       1.0  0.21466  0.89250  0.27800  1.0000
  H   H101      1.0  0.22936  0.88486  0.26823  1.0000
  H   H102      1.0  0.20532  0.88920  0.21949  1.0000
  C   C69       1.0  0.77898  0.09115  0.29011  1.0000
  C   C70       1.0  0.78615  0.07656  0.22651  1.0000
  C   C71       1.0  0.78822  0.05555  0.25171  1.0000
  N   N35       1.0  0.79917  0.04222  0.19973  1.0000
  H   H103      1.0  0.80783  0.04713  0.15190  1.0000
  H   H104      1.0  0.80250  0.02853  0.22044  1.0000
  N   N36       1.0  0.78896  0.08223  0.13951  1.0000
  H   H105      1.0  0.78404  0.09530  0.11749  1.0000
  H   H106      1.0  0.79090  0.07212  0.09292  1.0000
  C   C72       1.0  0.78282  0.11375  0.27719  1.0000
  H   H107      1.0  0.76814  0.12141  0.26708  1.0000
  H   H108      1.0  0.79228  0.11712  0.21912  1.0000
  C   C73       1.0  0.08650  0.22325  0.29176  1.0000
  C   C74       1.0  0.07193  0.21607  0.22828  1.0000
  C   C75       1.0  0.05103  0.21380  0.25394  1.0000
  N   N37       1.0  0.03776  0.20285  0.20182  1.0000
  H   H109      1.0  0.04263  0.19430  0.15349  1.0000
  H   H110      1.0  0.02416  0.19938  0.22266  1.0000
  N   N38       1.0  0.07749  0.21344  0.14108  1.0000
  H   H111      1.0  0.09047  0.21850  0.11895  1.0000
  H   H112      1.0  0.06739  0.21152  0.09463  1.0000
  C   C76       1.0  0.10902  0.21952  0.27828  1.0000
  H   H113      1.0  0.11659  0.23429  0.26830  1.0000
  H   H114      1.0  0.11236  0.21010  0.21995  1.0000
  C   C77       1.0  0.91137  0.78374  0.29085  1.0000
  C   C78       1.0  0.92591  0.79092  0.22718  1.0000
  C   C79       1.0  0.94686  0.79295  0.25230  1.0000
  N   N39       1.0  0.96015  0.80391  0.20029  1.0000
  H   H115      1.0  0.95526  0.81262  0.15251  1.0000
  H   H116      1.0  0.97379  0.80723  0.22095  1.0000
  N   N40       1.0  0.92025  0.79375  0.14021  1.0000
  H   H117      1.0  0.90722  0.78884  0.11820  1.0000
  H   H118      1.0  0.93032  0.79567  0.09358  1.0000
  C   C80       1.0  0.88885  0.78759  0.27790  1.0000
  H   H119      1.0  0.88122  0.77285  0.26767  1.0000
  H   H120      1.0  0.88548  0.79709  0.21988  1.0000
  C   C81       1.0  0.28011  0.45575  0.32430  1.0000
  C   C82       1.0  0.27303  0.44100  0.26128  1.0000
  C   C83       1.0  0.27076  0.42011  0.28770  1.0000
  N   N41       1.0  0.27060  0.44639  0.17371  1.0000
  H   H121      1.0  0.27570  0.45937  0.15129  1.0000
  H   H122      1.0  0.26881  0.43614  0.12760  1.0000
  N   N42       1.0  0.25984  0.40675  0.23570  1.0000
  H   H123      1.0  0.25648  0.39306  0.25610  1.0000
  H   H124      1.0  0.25127  0.41166  0.18753  1.0000
  C   C84       1.0  0.27615  0.47827  0.30950  1.0000
  H   H125      1.0  0.26619  0.48103  0.25236  1.0000
  H   H126      1.0  0.29073  0.48583  0.29582  1.0000
  C   C85       1.0  0.71851  0.55061  0.32668  1.0000
  C   C86       1.0  0.72558  0.56526  0.26320  1.0000
  C   C87       1.0  0.72793  0.58618  0.28910  1.0000
  N   N43       1.0  0.72794  0.55976  0.17573  1.0000
  H   H127      1.0  0.72278  0.54677  0.15367  1.0000
  H   H128      1.0  0.72973  0.56995  0.12938  1.0000
  N   N44       1.0  0.73888  0.59943  0.23675  1.0000
  H   H129      1.0  0.74230  0.61313  0.25685  1.0000
  H   H130      1.0  0.74742  0.59443  0.18866  1.0000
  C   C88       1.0  0.72248  0.52807  0.31248  1.0000
  H   H131      1.0  0.73233  0.52523  0.25507  1.0000
  H   H132      1.0  0.70789  0.52046  0.29954  1.0000
  C   C89       1.0  0.45206  0.72203  0.32373  1.0000
  C   C90       1.0  0.43747  0.72923  0.26047  1.0000
  C   C91       1.0  0.41665  0.73172  0.28659  1.0000
  N   N45       1.0  0.44293  0.73158  0.17296  1.0000
  H   H133      1.0  0.45584  0.72636  0.15078  1.0000
  H   H134      1.0  0.43277  0.73345  0.12669  1.0000
  N   N46       1.0  0.40348  0.74277  0.23433  1.0000
  H   H135      1.0  0.38986  0.74628  0.25456  1.0000
  H   H136      1.0  0.40848  0.75130  0.18612  1.0000
  C   C92       1.0  0.47455  0.72583  0.30928  1.0000
  H   H137      1.0  0.47741  0.73580  0.25215  1.0000
  H   H138      1.0  0.48198  0.71114  0.29573  1.0000
  C   C93       1.0  0.54614  0.28444  0.32496  1.0000
  C   C94       1.0  0.56075  0.27749  0.26126  1.0000
  C   C95       1.0  0.58161  0.27516  0.28702  1.0000
  N   N47       1.0  0.55524  0.27523  0.17377  1.0000
  H   H139      1.0  0.54227  0.28037  0.15194  1.0000
  H   H140      1.0  0.56539  0.27354  0.12729  1.0000
  N   N48       1.0  0.59483  0.26428  0.23427  1.0000
  H   H141      1.0  0.60849  0.26084  0.25421  1.0000
  H   H142      1.0  0.58986  0.25579  0.18591  1.0000
  C   C96       1.0  0.52369  0.28041  0.31081  1.0000
  H   H143      1.0  0.52088  0.27053  0.25332  1.0000
  H   H144      1.0  0.51606  0.29503  0.29802  1.0000
  C   C97       1.0  0.21975  0.25117  0.31239  1.0000
  C   C98       1.0  0.23108  0.26013  0.24084  1.0000
  C   C99       1.0  0.24836  0.27269  0.26094  1.0000
  N   N49       1.0  0.22592  0.25660  0.15381  1.0000
  H   H145      1.0  0.21535  0.24703  0.13626  1.0000
  H   H146      1.0  0.23163  0.26464  0.10547  1.0000
  N   N50       1.0  0.26344  0.27570  0.19908  1.0000
  H   H147      1.0  0.27678  0.28057  0.21767  1.0000
  H   H148      1.0  0.26356  0.26803  0.14378  1.0000
  C   C100      1.0  0.20075  0.23891  0.29342  1.0000
  H   H149      1.0  0.20592  0.22427  0.26580  1.0000
  H   H150      1.0  0.19166  0.24671  0.24246  1.0000
  C   C101      1.0  0.77841  0.75546  0.31314  1.0000
  C   C102      1.0  0.76714  0.74647  0.24148  1.0000
  C   C103      1.0  0.74989  0.73385  0.26141  1.0000
  N   N51       1.0  0.77232  0.75003  0.15450  1.0000
  H   H151      1.0  0.78287  0.75963  0.13705  1.0000
  H   H152      1.0  0.76665  0.74197  0.10610  1.0000
  N   N52       1.0  0.73486  0.73078  0.19942  1.0000
  H   H153      1.0  0.72152  0.72585  0.21786  1.0000
  H   H154      1.0  0.73472  0.73846  0.14414  1.0000
  C   C104      1.0  0.79738  0.76779  0.29432  1.0000
  H   H155      1.0  0.79216  0.78239  0.26654  1.0000
  H   H156      1.0  0.80652  0.76000  0.24349  1.0000
  C   C105      1.0  0.75090  0.22455  0.31391  1.0000
  C   C106      1.0  0.74190  0.23587  0.24240  1.0000
  C   C107      1.0  0.72906  0.25296  0.26259  1.0000
  N   N53       1.0  0.74566  0.23088  0.15535  1.0000
  H   H157      1.0  0.75542  0.22048  0.13783  1.0000
  H   H158      1.0  0.73763  0.23655  0.10691  1.0000
  N   N54       1.0  0.72592  0.26814  0.20107  1.0000
  H   H159      1.0  0.72084  0.28142  0.21991  1.0000
  H   H160      1.0  0.73365  0.26847  0.14602  1.0000
  C   C108      1.0  0.76345  0.20570  0.29486  1.0000
  H   H161      1.0  0.77802  0.21114  0.26808  1.0000
  H   H162      1.0  0.75592  0.19655  0.24331  1.0000
  C   C109      1.0  0.24693  0.78178  0.31440  1.0000
  C   C110      1.0  0.25598  0.77047  0.24294  1.0000
  C   C111      1.0  0.26888  0.75343  0.26324  1.0000
  N   N55       1.0  0.25221  0.77542  0.15586  1.0000
  H   H163      1.0  0.24241  0.78579  0.13827  1.0000
  H   H164      1.0  0.26026  0.76977  0.10746  1.0000
  N   N56       1.0  0.27209  0.73826  0.20178  1.0000
  H   H165      1.0  0.27725  0.72501  0.22066  1.0000
  H   H166      1.0  0.26437  0.73787  0.14674  1.0000
  C   C112      1.0  0.23431  0.80057  0.29519  1.0000
  H   H167      1.0  0.21978  0.79506  0.26824  1.0000
  H   H168      1.0  0.24183  0.80975  0.24370  1.0000
  C   C113      1.0  0.51139  0.98731  0.32891  1.0000
  C   C114      1.0  0.50917  0.00398  0.26804  1.0000
  C   C115      1.0  0.49952  0.02245  0.29687  1.0000
  N   N57       1.0  0.51402  0.00146  0.17991  1.0000
  H   H169      1.0  0.51688  0.98800  0.15544  1.0000
  H   H170      1.0  0.50984  0.01132  0.13518  1.0000
  N   N58       1.0  0.50091  0.03994  0.24659  1.0000
  H   H171      1.0  0.49594  0.05301  0.26829  1.0000
  H   H172      1.0  0.51068  0.04103  0.19828  1.0000
  C   C116      1.0  0.52633  0.97029  0.30986  1.0000
  H   H173      1.0  0.53637  0.97392  0.25387  1.0000
  H   H174      1.0  0.51758  0.95661  0.29193  1.0000
  C   C117      1.0  0.01498  0.51580  0.33070  1.0000
  C   C118      1.0  0.99830  0.51393  0.26993  1.0000
  C   C119      1.0  0.97976  0.50450  0.29867  1.0000
  N   N59       1.0  0.00085  0.51887  0.18188  1.0000
  H   H175      1.0  0.01429  0.52154  0.15734  1.0000
  H   H176      1.0  0.99092  0.51490  0.13718  1.0000
  N   N60       1.0  0.96232  0.50623  0.24862  1.0000
  H   H177      1.0  0.94924  0.50140  0.27035  1.0000
  H   H178      1.0  0.96136  0.51612  0.20061  1.0000
  C   C120      1.0  0.03217  0.53055  0.31185  1.0000
  H   H179      1.0  0.02870  0.54071  0.25602  1.0000
  H   H180      1.0  0.04566  0.52158  0.29373  1.0000
  C   C121      1.0  0.23039  0.04476  0.32183  1.0000
  N   N61       1.0  0.22438  0.02524  0.30357  1.0000
  C   C122      1.0  0.23836  0.01020  0.28915  1.0000
  N   N62       1.0  0.25853  0.01498  0.29328  1.0000
  C   C123      1.0  0.26493  0.03424  0.31298  1.0000
  N   N63       1.0  0.25068  0.04903  0.32693  1.0000
  N   N64       1.0  0.23201  0.98983  0.27277  1.0000
  H   H181      1.0  0.24453  0.98116  0.25535  1.0000
  N   N65       1.0  0.28607  0.03843  0.31418  1.0000
  H   H182      1.0  0.28867  0.05392  0.32054  1.0000
  N   N66       1.0  0.21616  0.06060  0.33765  1.0000
  H   H183      1.0  0.20163  0.05470  0.34289  1.0000
  C   C124      1.0  0.76613  0.96158  0.31809  1.0000
  N   N67       1.0  0.77246  0.98099  0.29976  1.0000
  C   C125      1.0  0.75874  0.99617  0.28369  1.0000
  N   N68       1.0  0.73849  0.99166  0.28637  1.0000
  C   C126      1.0  0.73177  0.97251  0.30608  1.0000
  N   N69       1.0  0.74576  0.95756  0.32173  1.0000
  N   N70       1.0  0.76540  0.01647  0.26794  1.0000
  H   H184      1.0  0.75306  0.02529  0.24947  1.0000
  N   N71       1.0  0.71054  0.96867  0.30666  1.0000
  H   H185      1.0  0.70768  0.95327  0.31430  1.0000
  N   N72       1.0  0.78014  0.94563  0.33574  1.0000
  H   H186      1.0  0.79469  0.95144  0.34190  1.0000
  C   C127      1.0  0.95723  0.23483  0.32169  1.0000
  N   N73       1.0  0.97667  0.22877  0.30331  1.0000
  C   C128      1.0  0.99167  0.24278  0.28890  1.0000
  N   N74       1.0  0.98695  0.26304  0.29319  1.0000
  C   C129      1.0  0.96778  0.26948  0.31304  1.0000
  N   N75       1.0  0.95301  0.25520  0.32695  1.0000
  N   N76       1.0  0.01196  0.23640  0.27247  1.0000
  H   H187      1.0  0.02059  0.24895  0.25477  1.0000
  N   N77       1.0  0.96363  0.29070  0.31435  1.0000
  H   H188      1.0  0.94820  0.29333  0.32092  1.0000
  N   N78       1.0  0.94141  0.22058  0.33739  1.0000
  H   H189      1.0  0.94726  0.20598  0.34250  1.0000
  C   C130      1.0  0.04049  0.77059  0.31747  1.0000
  N   N79       1.0  0.02114  0.77698  0.29950  1.0000
  C   C131      1.0  0.00597  0.76323  0.28372  1.0000
  N   N80       1.0  0.01044  0.74290  0.28629  1.0000
  C   C132      1.0  0.02952  0.73613  0.30567  1.0000
  N   N81       1.0  0.04446  0.75015  0.32104  1.0000
  N   N82       1.0  0.98575  0.76995  0.26820  1.0000
  H   H190      1.0  0.97693  0.75759  0.24978  1.0000
  N   N83       1.0  0.03335  0.71483  0.30603  1.0000
  H   H191      1.0  0.04871  0.71196  0.31353  1.0000
  N   N84       1.0  0.05645  0.78460  0.33476  1.0000
  H   H192      1.0  0.05074  0.79923  0.34087  1.0000
  C   C133      1.0  0.27045  0.54309  0.34716  1.0000
  N   N85       1.0  0.27539  0.52311  0.36138  1.0000
  C   C134      1.0  0.26059  0.50874  0.37350  1.0000
  N   N86       1.0  0.24066  0.51464  0.37192  1.0000
  C   C135      1.0  0.23539  0.53444  0.35664  1.0000
  N   N87       1.0  0.25043  0.54848  0.34451  1.0000
  N   N88       1.0  0.26596  0.48801  0.38756  1.0000
  H   H193      1.0  0.25303  0.47974  0.40288  1.0000
  N   N89       1.0  0.21470  0.54036  0.36003  1.0000
  H   H194      1.0  0.21365  0.55611  0.36059  1.0000
  N   N90       1.0  0.28531  0.55843  0.33296  1.0000
  H   H195      1.0  0.29963  0.55205  0.32750  1.0000
  C   C136      1.0  0.72867  0.46336  0.35094  1.0000
  N   N91       1.0  0.72361  0.48330  0.36561  1.0000
  C   C137      1.0  0.73832  0.49780  0.37658  1.0000
  N   N92       1.0  0.75830  0.49211  0.37300  1.0000
  C   C138      1.0  0.76368  0.47236  0.35736  1.0000
  N   N93       1.0  0.74873  0.45816  0.34646  1.0000
  N   N94       1.0  0.73282  0.51850  0.39053  1.0000
  H   H196      1.0  0.74572  0.52686  0.40534  1.0000
  N   N95       1.0  0.78447  0.46676  0.35745  1.0000
  H   H197      1.0  0.78574  0.45104  0.36025  1.0000
  N   N96       1.0  0.71386  0.44795  0.33713  1.0000
  H   H198      1.0  0.69949  0.45425  0.33283  1.0000
  C   C139      1.0  0.53917  0.73144  0.34718  1.0000
  N   N97       1.0  0.51925  0.72649  0.36125  1.0000
  C   C140      1.0  0.50494  0.74134  0.37355  1.0000
  N   N98       1.0  0.51084  0.76134  0.37228  1.0000
  C   C141      1.0  0.53057  0.76663  0.35715  1.0000
  N   N99       1.0  0.54455  0.75153  0.34483  1.0000
  N   N100      1.0  0.48427  0.73598  0.38748  1.0000
  H   H199      1.0  0.47606  0.74896  0.40297  1.0000
  N   N101      1.0  0.53650  0.78738  0.36077  1.0000
  H   H200      1.0  0.55220  0.78841  0.36142  1.0000
  N   N102      1.0  0.55446  0.71654  0.33281  1.0000
  H   H201      1.0  0.54812  0.70217  0.32714  1.0000
  C   C142      1.0  0.45919  0.27401  0.35014  1.0000
  N   N103      1.0  0.47907  0.27913  0.36418  1.0000
  C   C143      1.0  0.49356  0.26440  0.37513  1.0000
  N   N104      1.0  0.48790  0.24434  0.37226  1.0000
  C   C144      1.0  0.46820  0.23890  0.35728  1.0000
  N   N105      1.0  0.45403  0.25387  0.34633  1.0000
  N   N106      1.0  0.51419  0.26996  0.38880  1.0000
  H   H202      1.0  0.52256  0.25704  0.40347  1.0000
  N   N107      1.0  0.46261  0.21803  0.35820  1.0000
  H   H203      1.0  0.44695  0.21678  0.36160  1.0000
  N   N108      1.0  0.44378  0.28882  0.33636  1.0000
  H   H204      1.0  0.45000  0.30326  0.33164  1.0000
  C   C145      1.0  0.16769  0.18345  0.33891  1.0000
  N   N109      1.0  0.18019  0.19992  0.34833  1.0000
  C   C146      1.0  0.17263  0.21916  0.35863  1.0000
  N   N110      1.0  0.15201  0.22176  0.36100  1.0000
  C   C147      1.0  0.13918  0.20551  0.35138  1.0000
  N   N111      1.0  0.14719  0.18645  0.34017  1.0000
  N   N112      1.0  0.18647  0.23560  0.36957  1.0000
  H   H205      1.0  0.17883  0.24901  0.38337  1.0000
  N   N113      1.0  0.11785  0.20847  0.35603  1.0000
  H   H206      1.0  0.11065  0.19451  0.36224  1.0000
  N   N114      1.0  0.17564  0.16369  0.32307  1.0000
  H   H207      1.0  0.19115  0.16469  0.31252  1.0000
  C   C148      1.0  0.83016  0.82340  0.33935  1.0000
  N   N115      1.0  0.81774  0.80688  0.34903  1.0000
  C   C149      1.0  0.82539  0.78768  0.35953  1.0000
  N   N116      1.0  0.84601  0.78517  0.36177  1.0000
  C   C150      1.0  0.85878  0.80148  0.35191  1.0000
  N   N117      1.0  0.85068  0.82050  0.34050  1.0000
  N   N118      1.0  0.81161  0.77119  0.37055  1.0000
  H   H208      1.0  0.81930  0.75782  0.38450  1.0000
  N   N119      1.0  0.88011  0.79857  0.35605  1.0000
  H   H209      1.0  0.88729  0.81254  0.36221  1.0000
  N   N120      1.0  0.82208  0.84310  0.32302  1.0000
  H   H210      1.0  0.80659  0.84196  0.31219  1.0000
  C   C151      1.0  0.81875  0.17249  0.33919  1.0000
  N   N121      1.0  0.80234  0.18504  0.34901  1.0000
  C   C152      1.0  0.78318  0.17743  0.35933  1.0000
  N   N122      1.0  0.78058  0.15674  0.36126  1.0000
  C   C153      1.0  0.79677  0.14387  0.35125  1.0000
  N   N123      1.0  0.81576  0.15192  0.34005  1.0000
  N   N124      1.0  0.76679  0.19130  0.37069  1.0000
  H   H211      1.0  0.75344  0.18359  0.38429  1.0000
  N   N125      1.0  0.79380  0.12247  0.35533  1.0000
  H   H212      1.0  0.80769  0.11522  0.36148  1.0000
  N   N126      1.0  0.83844  0.18047  0.32334  1.0000
  H   H213      1.0  0.83746  0.19605  0.31309  1.0000
  C   C154      1.0  0.17883  0.83353  0.33866  1.0000
  N   N127      1.0  0.19528  0.82107  0.34868  1.0000
  C   C155      1.0  0.21441  0.82876  0.35930  1.0000
  N   N128      1.0  0.21690  0.84946  0.36136  1.0000
  C   C156      1.0  0.20067  0.86226  0.35112  1.0000
  N   N129      1.0  0.18172  0.85412  0.33964  1.0000
  N   N130      1.0  0.23085  0.81497  0.37093  1.0000
  H   H214      1.0  0.24415  0.82274  0.38469  1.0000
  N   N131      1.0  0.20353  0.88367  0.35550  1.0000
  H   H215      1.0  0.18959  0.89087  0.36115  1.0000
  N   N132      1.0  0.15919  0.82544  0.32250  1.0000
  H   H216      1.0  0.16028  0.80988  0.31194  1.0000
  C   C157      1.0  0.32881  0.68328  0.32289  1.0000
  N   N133      1.0  0.31617  0.69968  0.31404  1.0000
  C   C158      1.0  0.32362  0.71897  0.30378  1.0000
  N   N134      1.0  0.34422  0.72170  0.30089  1.0000
  C   C159      1.0  0.35716  0.70553  0.31000  1.0000
  N   N135      1.0  0.34928  0.68642  0.32119  1.0000
  N   N136      1.0  0.30973  0.73538  0.29311  1.0000
  H   H217      1.0  0.31735  0.74879  0.27917  1.0000
  N   N137      1.0  0.37845  0.70859  0.30482  1.0000
  H   H218      1.0  0.38570  0.69468  0.29796  1.0000
  N   N138      1.0  0.32112  0.66341  0.33857  1.0000
  H   H219      1.0  0.30559  0.66414  0.34898  1.0000
  C   C160      1.0  0.66952  0.32348  0.32381  1.0000
  N   N139      1.0  0.68206  0.30703  0.31433  1.0000
  C   C161      1.0  0.67451  0.28779  0.30354  1.0000
  N   N140      1.0  0.65390  0.28518  0.30077  1.0000
  C   C162      1.0  0.64104  0.30140  0.31049  1.0000
  N   N141      1.0  0.64903  0.32045  0.32221  1.0000
  N   N142      1.0  0.68832  0.27133  0.29246  1.0000
  H   H220      1.0  0.68063  0.25798  0.27818  1.0000
  N   N143      1.0  0.61973  0.29843  0.30561  1.0000
  H   H221      1.0  0.61252  0.31239  0.29943  1.0000
  N   N144      1.0  0.67735  0.34327  0.34016  1.0000
  H   H222      1.0  0.69288  0.34241  0.35037  1.0000
  C   C163      1.0  0.67927  0.67410  0.32177  1.0000
  N   N145      1.0  0.69560  0.68678  0.31251  1.0000
  C   C164      1.0  0.71484  0.67929  0.30272  1.0000
  N   N146      1.0  0.71758  0.65862  0.30084  1.0000
  C   C165      1.0  0.70147  0.64564  0.31047  1.0000
  N   N147      1.0  0.68242  0.65355  0.32110  1.0000
  N   N148      1.0  0.73121  0.69319  0.29165  1.0000
  H   H223      1.0  0.74456  0.68549  0.27808  1.0000
  N   N149      1.0  0.70456  0.62427  0.30633  1.0000
  H   H224      1.0  0.69070  0.61694  0.29988  1.0000
  N   N150      1.0  0.65945  0.68179  0.33696  1.0000
  H   H225      1.0  0.66013  0.69739  0.34685  1.0000
  C   C166      1.0  0.31925  0.33211  0.32336  1.0000
  N   N151      1.0  0.30288  0.31951  0.31363  1.0000
  C   C167      1.0  0.28369  0.32708  0.30304  1.0000
  N   N152      1.0  0.28106  0.34776  0.30077  1.0000
  C   C168      1.0  0.29721  0.36067  0.31080  1.0000
  N   N153      1.0  0.31620  0.35267  0.32225  1.0000
  N   N154      1.0  0.26728  0.31324  0.29151  1.0000
  H   H226      1.0  0.25399  0.32100  0.27746  1.0000
  N   N155      1.0  0.29422  0.38205  0.30621  1.0000
  H   H227      1.0  0.30811  0.38932  0.29991  1.0000
  N   N156      1.0  0.33900  0.32430  0.33937  1.0000
  H   H228      1.0  0.33820  0.30870  0.34933  1.0000
  C   C169      1.0  0.40950  0.06608  0.32413  1.0000
  N   N157      1.0  0.41591  0.08555  0.30768  1.0000
  C   C170      1.0  0.43609  0.08983  0.29609  1.0000
  N   N158      1.0  0.44988  0.07427  0.30041  1.0000
  C   C171      1.0  0.44383  0.05478  0.31779  1.0000
  N   N159      1.0  0.42365  0.05092  0.32965  1.0000
  N   N160      1.0  0.44249  0.11022  0.28039  1.0000
  H   H229      1.0  0.45783  0.11039  0.26546  1.0000
  N   N161      1.0  0.45829  0.03879  0.31729  1.0000
  H   H230      1.0  0.45090  0.02487  0.31444  1.0000
  N   N162      1.0  0.38876  0.06112  0.33886  1.0000
  H   H231      1.0  0.37988  0.07412  0.33858  1.0000
  C   C172      1.0  0.58888  0.94006  0.34558  1.0000
  N   N163      1.0  0.58228  0.92075  0.32688  1.0000
  C   C173      1.0  0.56204  0.91607  0.32888  1.0000
  N   N164      1.0  0.54836  0.93102  0.34947  1.0000
  C   C174      1.0  0.55459  0.95038  0.36840  1.0000
  N   N165      1.0  0.57489  0.95461  0.36702  1.0000
  N   N166      1.0  0.55544  0.89592  0.30971  1.0000
  H   H232      1.0  0.53981  0.89579  0.30223  1.0000
  N   N167      1.0  0.54004  0.96583  0.38673  1.0000
  H   H233      1.0  0.54745  0.97913  0.40459  1.0000
  N   N168      1.0  0.60979  0.94539  0.34666  1.0000
  H   H234      1.0  0.61878  0.93266  0.33656  1.0000
  C   C175      1.0  0.93597  0.41430  0.32295  1.0000
  N   N169      1.0  0.91658  0.42074  0.30642  1.0000
  C   C176      1.0  0.91230  0.44100  0.29523  1.0000
  N   N170      1.0  0.92780  0.45485  0.30005  1.0000
  C   C177      1.0  0.94721  0.44877  0.31751  1.0000
  N   N171      1.0  0.95106  0.42851  0.32896  1.0000
  N   N172      1.0  0.89199  0.44742  0.27956  1.0000
  H   H235      1.0  0.89180  0.46283  0.26489  1.0000
  N   N173      1.0  0.96315  0.46326  0.31741  1.0000
  H   H236      1.0  0.97701  0.45584  0.31404  1.0000
  N   N174      1.0  0.94093  0.39348  0.33732  1.0000
  H   H237      1.0  0.92799  0.38454  0.33656  1.0000
  C   C178      1.0  0.06270  0.59301  0.34612  1.0000
  N   N175      1.0  0.08189  0.58628  0.32718  1.0000
  C   C179      1.0  0.08648  0.56595  0.32967  1.0000
  N   N176      1.0  0.07155  0.55231  0.35096  1.0000
  C   C180      1.0  0.05231  0.55867  0.37023  1.0000
  N   N177      1.0  0.04818  0.57905  0.36830  1.0000
  N   N178      1.0  0.10651  0.55923  0.31022  1.0000
  H   H238      1.0  0.10657  0.54354  0.30287  1.0000
  N   N179      1.0  0.03685  0.54417  0.38890  1.0000
  H   H239      1.0  0.02369  0.55170  0.40729  1.0000
  N   N180      1.0  0.05742  0.61400  0.34641  1.0000
  H   H240      1.0  0.07010  0.62299  0.33594  1.0000
  C   C181      1.0  0.32031  0.02655  0.36087  1.0000
  C   C182      1.0  0.33578  0.03036  0.42598  1.0000
  C   C183      1.0  0.35645  0.03283  0.39731  1.0000
  N   N181      1.0  0.33115  0.03106  0.51477  1.0000
  H   H241      1.0  0.31820  0.02639  0.53839  1.0000
  H   H242      1.0  0.34067  0.03618  0.55892  1.0000
  N   N182      1.0  0.37241  0.03085  0.45575  1.0000
  H   H243      1.0  0.38626  0.02913  0.43393  1.0000
  H   H244      1.0  0.37031  0.02580  0.51570  1.0000
  C   C184      1.0  0.29791  0.02717  0.38348  1.0000
  H   H245      1.0  0.29464  0.03491  0.44628  1.0000
  H   H246      1.0  0.29273  0.01130  0.39035  1.0000
  C   C185      1.0  0.67635  0.98110  0.35408  1.0000
  C   C186      1.0  0.66120  0.97873  0.42187  1.0000
  C   C187      1.0  0.64032  0.97611  0.39640  1.0000
  N   N183      1.0  0.66646  0.97939  0.51004  1.0000
  H   H247      1.0  0.67963  0.98426  0.53040  1.0000
  H   H248      1.0  0.65721  0.97517  0.55700  1.0000
  N   N184      1.0  0.62478  0.97848  0.45674  1.0000
  H   H249      1.0  0.61068  0.97940  0.43724  1.0000
  H   H250      1.0  0.62721  0.98418  0.51532  1.0000
  C   C188      1.0  0.69885  0.98044  0.37487  1.0000
  H   H251      1.0  0.70220  0.97305  0.43844  1.0000
  H   H252      1.0  0.70410  0.99633  0.37948  1.0000
  C   C189      1.0  0.97560  0.32503  0.36055  1.0000
  C   C190      1.0  0.97180  0.34060  0.42540  1.0000
  C   C191      1.0  0.96930  0.36132  0.39637  1.0000
  N   N185      1.0  0.97112  0.33603  0.51427  1.0000
  H   H253      1.0  0.97581  0.32306  0.53805  1.0000
  H   H254      1.0  0.96603  0.34562  0.55831  1.0000
  N   N186      1.0  0.97121  0.37739  0.45454  1.0000
  H   H255      1.0  0.97286  0.39128  0.43250  1.0000
  H   H256      1.0  0.97623  0.37536  0.51454  1.0000
  C   C192      1.0  0.97493  0.30256  0.38346  1.0000
  H   H257      1.0  0.96723  0.29935  0.44637  1.0000
  H   H258      1.0  0.99073  0.29732  0.39024  1.0000
  C   C193      1.0  0.02118  0.68046  0.35353  1.0000
  C   C194      1.0  0.02370  0.66530  0.42136  1.0000
  C   C195      1.0  0.02652  0.64437  0.39594  1.0000
  N   N187      1.0  0.02299  0.67058  0.50952  1.0000
  H   H259      1.0  0.01799  0.68375  0.52983  1.0000
  H   H260      1.0  0.02727  0.66135  0.55650  1.0000
  N   N188      1.0  0.02429  0.62876  0.45630  1.0000
  H   H261      1.0  0.02349  0.61461  0.43679  1.0000
  H   H262      1.0  0.01858  0.63115  0.51484  1.0000
  C   C196      1.0  0.02167  0.70305  0.37422  1.0000
  H   H263      1.0  0.02896  0.70649  0.43784  1.0000
  H   H264      1.0  0.00580  0.70823  0.37858  1.0000
  C   C197      1.0  0.14284  0.55735  0.35772  1.0000
  C   C198      1.0  0.15399  0.54509  0.41982  1.0000
  C   C199      1.0  0.17124  0.53359  0.39005  1.0000
  N   N189      1.0  0.17946  0.51849  0.44250  1.0000
  H   H265      1.0  0.17217  0.51327  0.49393  1.0000
  H   H266      1.0  0.19002  0.50941  0.42028  1.0000
  N   N190      1.0  0.14977  0.54616  0.50912  1.0000
  H   H267      1.0  0.14099  0.55677  0.53310  1.0000
  H   H268      1.0  0.15895  0.54038  0.55318  1.0000
  C   C200      1.0  0.12167  0.56490  0.37997  1.0000
  H   H269      1.0  0.12232  0.58156  0.38803  1.0000
  H   H270      1.0  0.11584  0.55854  0.44222  1.0000
  C   C201      1.0  0.85654  0.45077  0.33892  1.0000
  C   C202      1.0  0.84625  0.46368  0.40136  1.0000
  C   C203      1.0  0.82830  0.47450  0.37460  1.0000
  N   N191      1.0  0.82059  0.49000  0.42633  1.0000
  H   H271      1.0  0.82853  0.49592  0.47437  1.0000
  H   H272      1.0  0.80946  0.49859  0.40578  1.0000
  N   N192      1.0  0.85203  0.46382  0.48912  1.0000
  H   H273      1.0  0.86148  0.45373  0.51248  1.0000
  H   H274      1.0  0.84353  0.46997  0.53475  1.0000
  C   C204      1.0  0.87808  0.44364  0.35640  1.0000
  H   H275      1.0  0.87753  0.42727  0.37206  1.0000
  H   H276      1.0  0.88502  0.45145  0.41321  1.0000
  C   C205      1.0  0.55363  0.85951  0.35784  1.0000
  C   C206      1.0  0.54145  0.84836  0.42018  1.0000
  C   C207      1.0  0.52995  0.83104  0.39068  1.0000
  N   N193      1.0  0.51493  0.82283  0.44337  1.0000
  H   H277      1.0  0.50978  0.83016  0.49484  1.0000
  H   H278      1.0  0.50585  0.81224  0.42135  1.0000
  N   N194      1.0  0.54256  0.85264  0.50941  1.0000
  H   H279      1.0  0.55315  0.86147  0.53315  1.0000
  H   H280      1.0  0.53684  0.84346  0.55364  1.0000
  C   C208      1.0  0.56113  0.88079  0.37972  1.0000
  H   H281      1.0  0.57773  0.88017  0.38774  1.0000
  H   H282      1.0  0.55478  0.88667  0.44188  1.0000
  C   C209      1.0  0.44603  0.14577  0.33991  1.0000
  C   C210      1.0  0.45895  0.15601  0.40236  1.0000
  C   C211      1.0  0.46986  0.17394  0.37559  1.0000
  N   N195      1.0  0.48535  0.18158  0.42735  1.0000
  H   H283      1.0  0.49119  0.17358  0.47543  1.0000
  H   H284      1.0  0.49400  0.19268  0.40678  1.0000
  N   N196      1.0  0.45904  0.15021  0.49011  1.0000
  H   H285      1.0  0.44893  0.14078  0.51344  1.0000
  H   H286      1.0  0.46522  0.15870  0.53576  1.0000
  C   C212      1.0  0.43882  0.12418  0.35731  1.0000
  H   H287      1.0  0.42251  0.12480  0.37302  1.0000
  H   H288      1.0  0.44657  0.11717  0.41407  1.0000
  C   C213      1.0  0.18037  0.12793  0.37019  1.0000
  C   C214      1.0  0.19557  0.11852  0.42443  1.0000
  C   C215      1.0  0.20924  0.10399  0.38582  1.0000
  N   N197      1.0  0.22690  0.09892  0.42973  1.0000
  H   H289      1.0  0.23153  0.10669  0.48095  1.0000
  H   H290      1.0  0.23756  0.09100  0.40109  1.0000
  N   N198      1.0  0.19578  0.12208  0.51432  1.0000
  H   H291      1.0  0.18449  0.12900  0.54346  1.0000
  H   H292      1.0  0.20387  0.11367  0.55432  1.0000
  C   C216      1.0  0.17178  0.14858  0.39546  1.0000
  H   H293      1.0  0.17870  0.15493  0.45563  1.0000
  H   H294      1.0  0.15543  0.14699  0.40852  1.0000
  C   C217      1.0  0.81687  0.87883  0.36964  1.0000
  C   C218      1.0  0.80156  0.88807  0.42380  1.0000
  C   C219      1.0  0.78768  0.90238  0.38502  1.0000
  N   N199      1.0  0.76998  0.90729  0.42903  1.0000
  H   H295      1.0  0.76548  0.89954  0.48051  1.0000
  H   H296      1.0  0.75922  0.91507  0.40037  1.0000
  N   N200      1.0  0.80143  0.88460  0.51375  1.0000
  H   H297      1.0  0.81283  0.87786  0.54291  1.0000
  H   H298      1.0  0.79325  0.89292  0.55368  1.0000
  C   C220      1.0  0.82575  0.85832  0.39518  1.0000
  H   H299      1.0  0.81892  0.85192  0.45547  1.0000
  H   H300      1.0  0.84208  0.86012  0.40814  1.0000
  C   C221      1.0  0.87412  0.18505  0.37010  1.0000
  C   C222      1.0  0.88359  0.20025  0.42431  1.0000
  C   C223      1.0  0.89814  0.21388  0.38562  1.0000
  N   N201      1.0  0.90329  0.23159  0.42948  1.0000
  H   H301      1.0  0.89559  0.23628  0.48071  1.0000
  H   H302      1.0  0.91124  0.24224  0.40078  1.0000
  N   N202      1.0  0.88009  0.20049  0.51421  1.0000
  H   H303      1.0  0.87314  0.18919  0.54341  1.0000
  H   H304      1.0  0.88852  0.20855  0.55415  1.0000
  C   C224      1.0  0.85352  0.17652  0.39556  1.0000
  H   H305      1.0  0.84725  0.18346  0.45583  1.0000
  H   H306      1.0  0.85505  0.16009  0.40853  1.0000
  C   C225      1.0  0.12352  0.82056  0.36890  1.0000
  C   C226      1.0  0.11411  0.80526  0.42281  1.0000
  C   C227      1.0  0.09966  0.79156  0.38384  1.0000
  N   N203      1.0  0.09456  0.77381  0.42749  1.0000
  H   H307      1.0  0.10225  0.76914  0.47880  1.0000
  H   H308      1.0  0.08667  0.76315  0.39864  1.0000
  N   N204      1.0  0.11758  0.80499  0.51275  1.0000
  H   H309      1.0  0.12445  0.81632  0.54214  1.0000
  H   H310      1.0  0.10918  0.79685  0.55254  1.0000
  C   C228      1.0  0.14405  0.82922  0.39465  1.0000
  H   H311      1.0  0.15034  0.82227  0.45486  1.0000
  H   H312      1.0  0.14240  0.84563  0.40787  1.0000
  C   C229      1.0  0.29582  0.59401  0.36886  1.0000
  C   C230      1.0  0.31150  0.60389  0.41942  1.0000
  C   C231      1.0  0.32372  0.61942  0.37862  1.0000
  N   N205      1.0  0.31321  0.60040  0.50916  1.0000
  H   H313      1.0  0.30278  0.59303  0.54184  1.0000
  H   H314      1.0  0.32154  0.60908  0.54694  1.0000
  N   N206      1.0  0.34115  0.62640  0.41922  1.0000
  H   H315      1.0  0.35045  0.63571  0.38939  1.0000
  H   H316      1.0  0.34720  0.61905  0.46876  1.0000
  C   C232      1.0  0.28560  0.57480  0.40229  1.0000
  H   H317      1.0  0.27017  0.57913  0.42319  1.0000
  H   H318      1.0  0.29310  0.56800  0.46007  1.0000
  C   C233      1.0  0.70348  0.41234  0.37207  1.0000
  C   C234      1.0  0.68783  0.40249  0.42290  1.0000
  C   C235      1.0  0.67534  0.38718  0.38195  1.0000
  N   N207      1.0  0.68636  0.40578  0.51286  1.0000
  H   H319      1.0  0.69695  0.41294  0.54541  1.0000
  H   H320      1.0  0.67803  0.39709  0.55061  1.0000
  N   N208      1.0  0.65792  0.38032  0.42295  1.0000
  H   H321      1.0  0.64846  0.37119  0.39307  1.0000
  H   H322      1.0  0.65207  0.38761  0.47306  1.0000
  C   C236      1.0  0.71390  0.43142  0.40570  1.0000
  H   H323      1.0  0.72942  0.42704  0.42498  1.0000
  H   H324      1.0  0.70668  0.43808  0.46447  1.0000
  C   C237      1.0  0.59001  0.70621  0.36825  1.0000
  C   C238      1.0  0.60005  0.69052  0.41837  1.0000
  C   C239      1.0  0.61567  0.67850  0.37722  1.0000
  N   N209      1.0  0.59660  0.68863  0.50806  1.0000
  H   H325      1.0  0.58913  0.69895  0.54104  1.0000
  H   H326      1.0  0.60535  0.68033  0.54561  1.0000
  N   N210      1.0  0.62285  0.66104  0.41739  1.0000
  H   H327      1.0  0.63225  0.65189  0.38736  1.0000
  H   H328      1.0  0.61561  0.65482  0.46679  1.0000
  C   C240      1.0  0.57079  0.71623  0.40208  1.0000
  H   H329      1.0  0.57498  0.73169  0.42366  1.0000
  H   H330      1.0  0.56408  0.70851  0.45955  1.0000
  C   C241      1.0  0.40820  0.29899  0.37144  1.0000
  C   C242      1.0  0.39822  0.31463  0.42198  1.0000
  C   C243      1.0  0.38277  0.32690  0.38091  1.0000
  N   N211      1.0  0.40154  0.31628  0.51184  1.0000
  H   H331      1.0  0.40886  0.30581  0.54457  1.0000
  H   H332      1.0  0.39281  0.32457  0.54950  1.0000
  N   N212      1.0  0.37572  0.34434  0.42159  1.0000
  H   H333      1.0  0.36646  0.35367  0.39164  1.0000
  H   H334      1.0  0.38295  0.35038  0.47144  1.0000
  C   C244      1.0  0.42736  0.28880  0.40516  1.0000
  H   H335      1.0  0.42314  0.27323  0.42524  1.0000
  H   H336      1.0  0.43397  0.29624  0.46350  1.0000
  C   C245      1.0  0.21777  0.95751  0.33639  1.0000
  C   C246      1.0  0.22464  0.94281  0.40010  1.0000
  C   C247      1.0  0.22689  0.92186  0.37437  1.0000
  N   N213      1.0  0.22689  0.94831  0.48763  1.0000
  H   H337      1.0  0.22181  0.96135  0.50948  1.0000
  H   H338      1.0  0.22854  0.93812  0.53409  1.0000
  N   N214      1.0  0.23766  0.90855  0.42717  1.0000
  H   H339      1.0  0.24102  0.89482  0.40729  1.0000
  H   H340      1.0  0.24614  0.91351  0.47554  1.0000
  C   C248      1.0  0.22182  0.98004  0.35076  1.0000
  H   H341      1.0  0.23178  0.98270  0.40800  1.0000
  H   H342      1.0  0.20728  0.98767  0.36443  1.0000
  C   C249      1.0  0.77951  0.04866  0.33358  1.0000
  C   C250      1.0  0.77252  0.06327  0.39745  1.0000
  C   C251      1.0  0.77038  0.08426  0.37228  1.0000
  N   N215      1.0  0.77005  0.05760  0.48467  1.0000
  H   H343      1.0  0.77504  0.04451  0.50628  1.0000
  H   H344      1.0  0.76832  0.06771  0.53142  1.0000
  N   N216      1.0  0.75952  0.09750  0.42508  1.0000
  H   H345      1.0  0.75623  0.11127  0.40552  1.0000
  H   H346      1.0  0.75094  0.09249  0.47298  1.0000
  C   C252      1.0  0.77533  0.02613  0.34692  1.0000
  H   H347      1.0  0.76515  0.02343  0.40341  1.0000
  H   H348      1.0  0.78979  0.01841  0.36137  1.0000
  C   C253      1.0  0.04423  0.22232  0.33637  1.0000
  C   C254      1.0  0.05883  0.22934  0.40004  1.0000
  C   C255      1.0  0.07968  0.23171  0.37434  1.0000
  N   N217      1.0  0.05331  0.23162  0.48753  1.0000
  H   H349      1.0  0.04036  0.22644  0.50941  1.0000
  H   H350      1.0  0.06345  0.23336  0.53399  1.0000
  N   N218      1.0  0.09288  0.24264  0.42704  1.0000
  H   H351      1.0  0.10654  0.24609  0.40712  1.0000
  H   H352      1.0  0.08788  0.25115  0.47530  1.0000
  C   C256      1.0  0.02175  0.22626  0.35060  1.0000
  H   H353      1.0  0.01904  0.23626  0.40776  1.0000
  H   H354      1.0  0.01421  0.21163  0.36433  1.0000
  C   C257      1.0  0.95372  0.78418  0.33411  1.0000
  C   C258      1.0  0.93917  0.77717  0.39801  1.0000
  C   C259      1.0  0.91824  0.77508  0.37295  1.0000
  N   N219      1.0  0.94483  0.77465  0.48518  1.0000
  H   H355      1.0  0.95790  0.77962  0.50674  1.0000
  H   H356      1.0  0.93477  0.77293  0.53198  1.0000
  N   N220      1.0  0.90503  0.76419  0.42576  1.0000
  H   H357      1.0  0.89130  0.76092  0.40625  1.0000
  H   H358      1.0  0.91003  0.75555  0.47359  1.0000
  C   C260      1.0  0.97617  0.77992  0.34728  1.0000
  H   H359      1.0  0.97886  0.76969  0.40370  1.0000
  H   H360      1.0  0.98390  0.79441  0.36174  1.0000
  C   C261      1.0  0.27934  0.41342  0.37022  1.0000
  C   C262      1.0  0.28657  0.42815  0.43306  1.0000
  C   C263      1.0  0.28873  0.44908  0.40672  1.0000
  N   N221      1.0  0.29969  0.46251  0.45818  1.0000
  H   H361      1.0  0.30830  0.45771  0.50640  1.0000
  H   H362      1.0  0.30306  0.47614  0.43697  1.0000
  N   N222      1.0  0.28935  0.42269  0.52032  1.0000
  H   H363      1.0  0.28438  0.40969  0.54295  1.0000
  H   H364      1.0  0.29131  0.43291  0.56645  1.0000
  C   C264      1.0  0.28322  0.39086  0.38407  1.0000
  H   H365      1.0  0.26855  0.38318  0.39444  1.0000
  H   H366      1.0  0.29267  0.38762  0.44228  1.0000
  C   C265      1.0  0.71937  0.59300  0.37147  1.0000
  C   C266      1.0  0.71214  0.57837  0.43476  1.0000
  C   C267      1.0  0.70996  0.55740  0.40904  1.0000
  N   N223      1.0  0.69905  0.54404  0.46106  1.0000
  H   H367      1.0  0.69047  0.54891  0.50927  1.0000
  H   H368      1.0  0.69568  0.53037  0.44034  1.0000
  N   N224      1.0  0.70938  0.58398  0.52186  1.0000
  H   H369      1.0  0.71436  0.59702  0.54404  1.0000
  H   H370      1.0  0.70740  0.57385  0.56832  1.0000
  C   C268      1.0  0.71550  0.61558  0.38460  1.0000
  H   H371      1.0  0.73016  0.62327  0.39488  1.0000
  H   H372      1.0  0.70601  0.61891  0.44260  1.0000
  C   C269      1.0  0.40986  0.72321  0.36911  1.0000
  C   C270      1.0  0.42443  0.71584  0.43217  1.0000
  C   C271      1.0  0.44528  0.71346  0.40609  1.0000
  N   N225      1.0  0.45852  0.70235  0.45778  1.0000
  H   H373      1.0  0.45362  0.69377  0.50596  1.0000
  H   H374      1.0  0.47208  0.69883  0.43673  1.0000
  N   N226      1.0  0.41891  0.71313  0.51939  1.0000
  H   H375      1.0  0.40599  0.71826  0.54184  1.0000
  H   H376      1.0  0.42904  0.71107  0.56565  1.0000
  C   C272      1.0  0.38733  0.71953  0.38274  1.0000
  H   H377      1.0  0.37981  0.73432  0.39306  1.0000
  H   H378      1.0  0.38400  0.71006  0.44092  1.0000
  C   C273      1.0  0.58839  0.28360  0.36968  1.0000
  C   C274      1.0  0.57380  0.29076  0.43314  1.0000
  C   C275      1.0  0.55291  0.29296  0.40745  1.0000
  N   N227      1.0  0.53959  0.30385  0.45965  1.0000
  H   H379      1.0  0.54443  0.31242  0.50797  1.0000
  H   H380      1.0  0.52596  0.30724  0.43895  1.0000
  N   N228      1.0  0.57935  0.29340  0.52036  1.0000
  H   H381      1.0  0.59233  0.28836  0.54253  1.0000
  H   H382      1.0  0.56924  0.29530  0.56680  1.0000
  C   C276      1.0  0.61090  0.28736  0.38328  1.0000
  H   H383      1.0  0.61848  0.27259  0.39324  1.0000
  H   H384      1.0  0.61422  0.29677  0.44166  1.0000
  C   C277      1.0  0.25062  0.28054  0.34912  1.0000
  C   C278      1.0  0.24109  0.26968  0.42069  1.0000
  C   C279      1.0  0.22767  0.25303  0.40059  1.0000
  N   N229      1.0  0.22391  0.23808  0.46250  1.0000
  H   H385      1.0  0.23148  0.23757  0.51790  1.0000
  H   H386      1.0  0.21852  0.22492  0.44358  1.0000
  N   N230      1.0  0.24494  0.27465  0.50767  1.0000
  H   H387      1.0  0.25512  0.28465  0.52513  1.0000
  H   H388      1.0  0.23665  0.26937  0.55611  1.0000
  C   C280      1.0  0.26376  0.29900  0.36769  1.0000
  H   H389      1.0  0.27825  0.29317  0.39370  1.0000
  H   H390      1.0  0.25664  0.30840  0.41950  1.0000
  C   C281      1.0  0.74763  0.72598  0.34955  1.0000
  C   C282      1.0  0.75709  0.73685  0.42122  1.0000
  C   C283      1.0  0.77046  0.75355  0.40129  1.0000
  N   N231      1.0  0.77415  0.76850  0.46326  1.0000
  H   H391      1.0  0.76656  0.76898  0.51861  1.0000
  H   H392      1.0  0.77949  0.78169  0.44442  1.0000
  N   N232      1.0  0.75321  0.73187  0.50815  1.0000
  H   H393      1.0  0.74303  0.72185  0.52549  1.0000
  H   H394      1.0  0.76145  0.73717  0.55669  1.0000
  C   C284      1.0  0.73454  0.70746  0.36790  1.0000
  H   H395      1.0  0.71998  0.71324  0.39344  1.0000
  H   H396      1.0  0.74162  0.69811  0.41995  1.0000
  C   C285      1.0  0.72105  0.25495  0.35058  1.0000
  C   C286      1.0  0.73192  0.24548  0.42222  1.0000
  C   C287      1.0  0.74877  0.23233  0.40227  1.0000
  N   N233      1.0  0.76362  0.22871  0.46453  1.0000
  H   H397      1.0  0.76393  0.23623  0.52016  1.0000
  H   H398      1.0  0.77685  0.22353  0.44590  1.0000
  N   N234      1.0  0.72676  0.24912  0.50916  1.0000
  H   H399      1.0  0.71658  0.25912  0.52660  1.0000
  H   H400      1.0  0.73210  0.24082  0.55751  1.0000
  C   C288      1.0  0.70242  0.26783  0.36900  1.0000
  H   H401      1.0  0.70799  0.28239  0.39589  1.0000
  H   H402      1.0  0.69307  0.26043  0.42018  1.0000
  C   C289      1.0  0.27690  0.75150  0.35123  1.0000
  C   C290      1.0  0.26599  0.76095  0.42282  1.0000
  C   C291      1.0  0.24909  0.77403  0.40280  1.0000
  N   N235      1.0  0.23422  0.77761  0.46503  1.0000
  H   H403      1.0  0.23394  0.77010  0.52070  1.0000
  H   H404      1.0  0.22097  0.78273  0.44635  1.0000
  N   N236      1.0  0.27115  0.75733  0.50977  1.0000
  H   H405      1.0  0.28135  0.74735  0.52724  1.0000
  H   H406      1.0  0.26578  0.76561  0.55811  1.0000
  C   C292      1.0  0.29558  0.73871  0.36965  1.0000
  H   H407      1.0  0.29008  0.72409  0.39618  1.0000
  H   H408      1.0  0.30487  0.74610  0.42104  1.0000
  C   C293      1.0  0.48881  0.02270  0.37974  1.0000
  C   C294      1.0  0.49112  0.00612  0.44078  1.0000
  C   C295      1.0  0.50068  0.98761  0.41179  1.0000
  N   N237      1.0  0.49868  0.97001  0.46093  1.0000
  H   H409      1.0  0.48895  0.96910  0.50941  1.0000
  H   H410      1.0  0.50298  0.95684  0.43750  1.0000
  N   N238      1.0  0.48596  0.00865  0.52847  1.0000
  H   H411      1.0  0.48295  0.02213  0.55244  1.0000
  H   H412      1.0  0.49009  0.99882  0.57345  1.0000
  C   C296      1.0  0.47255  0.03871  0.39442  1.0000
  H   H413      1.0  0.47988  0.05364  0.40328  1.0000
  H   H414      1.0  0.46322  0.03599  0.45350  1.0000
  C   C297      1.0  0.97939  0.49361  0.38118  1.0000
  C   C298      1.0  0.99596  0.49561  0.44220  1.0000
  C   C299      1.0  0.01454  0.50497  0.41338  1.0000
  N   N239      1.0  0.03205  0.50266  0.46243  1.0000
  H   H415      1.0  0.03283  0.49283  0.51072  1.0000
  H   H416      1.0  0.04523  0.50681  0.43907  1.0000
  N   N240      1.0  0.99337  0.49031  0.52972  1.0000
  H   H417      1.0  0.97990  0.48743  0.55359  1.0000
  H   H418      1.0  0.00323  0.49424  0.57482  1.0000
  C   C300      1.0  0.96331  0.47740  0.39515  1.0000
  H   H419      1.0  0.94848  0.48484  0.40422  1.0000
  H   H420      1.0  0.96594  0.46789  0.45387  1.0000
