data_image0
_chemical_formula_structural       C2HC2HC2H4C2HC2HC2H4C8H4C8H4C8H4C8H4C2HC2HC2H4C2HC2HC2H4C2HC2HC2H4C2HC2HC2H4C8H4C8H4C8H4C8H4C2HC2HC2H4C2HC2HC2H4C2HC2HC2H4C2HC2HC2H4C6H3C6H3C6H3C6H3C6H3C6H3C6H3C6H3C6H3C6H3C6H3C6H3C8H4C8H4C2HC2HC2H4C2HC2HC2H4C2HC2HC2H4C2HC2HC2H4C8H4C8H4C8H4C8H4C2HC2HC2H4C2HC2HC2H4C2HC2HC2H4C2HC2HC2H4C8H4C8H4C8H4C8H4
_chemical_formula_sum              "C324 H216"
_cell_length_a       51.9304
_cell_length_b       51.7717
_cell_length_c       14.9415
_cell_angle_alpha    90
_cell_angle_beta     90
_cell_angle_gamma    90.1786

_space_group_name_H-M_alt    "P 1"
_space_group_IT_number       1

loop_
  _space_group_symop_operation_xyz
  'x, y, z'

loop_
  _atom_site_type_symbol
  _atom_site_label
  _atom_site_symmetry_multiplicity
  _atom_site_fract_x
  _atom_site_fract_y
  _atom_site_fract_z
  _atom_site_occupancy
  C   C1        1.0  0.97500  0.51484  0.26834  1.0000
  C   C2        1.0  0.95530  0.53369  0.26716  1.0000
  H   H1        1.0  0.94379  0.53545  0.21184  1.0000
  C   C3        1.0  0.02902  0.45250  0.27981  1.0000
  C   C4        1.0  0.01013  0.47217  0.28031  1.0000
  H   H2        1.0  0.02765  0.43797  0.23356  1.0000
  C   C5        1.0  0.98824  0.47084  0.21608  1.0000
  C   C6        1.0  0.97908  0.49814  0.18856  1.0000
  H   H3        1.0  0.97236  0.46045  0.24811  1.0000
  H   H4        1.0  0.99354  0.46028  0.15543  1.0000
  H   H5        1.0  0.96147  0.49619  0.14892  1.0000
  H   H6        1.0  0.99373  0.50720  0.14627  1.0000
  C   C7        1.0  0.48644  0.97429  0.26848  1.0000
  C   C8        1.0  0.46743  0.95463  0.26712  1.0000
  H   H7        1.0  0.46561  0.94307  0.21183  1.0000
  C   C9        1.0  0.54899  0.02837  0.28015  1.0000
  C   C10       1.0  0.52928  0.00941  0.28076  1.0000
  H   H8        1.0  0.56348  0.02699  0.23393  1.0000
  C   C11       1.0  0.53049  0.98741  0.21673  1.0000
  C   C12       1.0  0.50322  0.97828  0.18891  1.0000
  H   H9        1.0  0.54065  0.97147  0.24907  1.0000
  H   H10       1.0  0.54114  0.99264  0.15620  1.0000
  H   H11       1.0  0.50506  0.96058  0.14947  1.0000
  H   H12       1.0  0.49437  0.99297  0.14635  1.0000
  C   C13       1.0  0.07375  0.36023  0.33124  1.0000
  C   C14       1.0  0.05917  0.35001  0.25983  1.0000
  C   C15       1.0  0.05267  0.32360  0.25724  1.0000
  C   C16       1.0  0.05988  0.30641  0.32686  1.0000
  C   C17       1.0  0.05414  0.27901  0.32528  1.0000
  C   C18       1.0  0.03478  0.26797  0.27015  1.0000
  C   C19       1.0  0.02962  0.24127  0.27069  1.0000
  C   C20       1.0  0.04351  0.22424  0.32652  1.0000
  H   H13       1.0  0.02366  0.27921  0.22962  1.0000
  H   H14       1.0  0.01569  0.23432  0.22857  1.0000
  H   H15       1.0  0.05387  0.36159  0.20748  1.0000
  H   H16       1.0  0.04310  0.31714  0.20191  1.0000
  C   C21       1.0  0.92661  0.64225  0.33335  1.0000
  C   C22       1.0  0.94024  0.65271  0.26019  1.0000
  C   C23       1.0  0.94666  0.67912  0.25769  1.0000
  C   C24       1.0  0.94032  0.69604  0.32908  1.0000
  C   C25       1.0  0.94614  0.72341  0.32783  1.0000
  C   C26       1.0  0.96495  0.73454  0.27065  1.0000
  C   C27       1.0  0.97019  0.76121  0.27135  1.0000
  C   C28       1.0  0.95690  0.77810  0.32932  1.0000
  H   H17       1.0  0.97563  0.72337  0.22844  1.0000
  H   H18       1.0  0.98372  0.76824  0.22781  1.0000
  H   H19       1.0  0.94500  0.64129  0.20677  1.0000
  H   H20       1.0  0.95556  0.68578  0.20130  1.0000
  C   C29       1.0  0.64109  0.07381  0.33046  1.0000
  C   C30       1.0  0.65128  0.05945  0.25859  1.0000
  C   C31       1.0  0.67760  0.05307  0.25587  1.0000
  C   C32       1.0  0.69472  0.06020  0.32579  1.0000
  C   C33       1.0  0.72203  0.05459  0.32412  1.0000
  C   C34       1.0  0.73303  0.03534  0.26854  1.0000
  C   C35       1.0  0.75963  0.03027  0.26914  1.0000
  C   C36       1.0  0.77660  0.04418  0.32539  1.0000
  H   H21       1.0  0.72182  0.02421  0.22774  1.0000
  H   H22       1.0  0.76656  0.01638  0.22687  1.0000
  H   H23       1.0  0.63974  0.05421  0.20603  1.0000
  H   H24       1.0  0.68406  0.04367  0.20025  1.0000
  C   C37       1.0  0.35887  0.92606  0.33320  1.0000
  C   C38       1.0  0.34875  0.94068  0.26182  1.0000
  C   C39       1.0  0.32252  0.94738  0.25965  1.0000
  C   C40       1.0  0.30542  0.94034  0.32971  1.0000
  C   C41       1.0  0.27823  0.94650  0.32880  1.0000
  C   C42       1.0  0.26752  0.96606  0.27383  1.0000
  C   C43       1.0  0.24100  0.97154  0.27460  1.0000
  C   C44       1.0  0.22383  0.95778  0.33054  1.0000
  H   H25       1.0  0.27887  0.97707  0.23310  1.0000
  H   H26       1.0  0.23427  0.98556  0.23243  1.0000
  H   H27       1.0  0.36031  0.94601  0.20941  1.0000
  H   H28       1.0  0.31614  0.95704  0.20447  1.0000
  C   C45       1.0  0.42499  0.81553  0.27139  1.0000
  C   C46       1.0  0.41811  0.84197  0.27018  1.0000
  H   H29       1.0  0.40755  0.84904  0.21776  1.0000
  C   C47       1.0  0.43785  0.73396  0.28725  1.0000
  C   C48       1.0  0.43241  0.76074  0.28669  1.0000
  H   H30       1.0  0.42765  0.72204  0.24553  1.0000
  C   C49       1.0  0.41134  0.77074  0.22877  1.0000
  C   C50       1.0  0.41720  0.79848  0.19584  1.0000
  H   H31       1.0  0.39350  0.77076  0.26764  1.0000
  H   H32       1.0  0.40838  0.75840  0.17020  1.0000
  H   H33       1.0  0.40018  0.80589  0.16134  1.0000
  H   H34       1.0  0.43302  0.79791  0.14757  1.0000
  C   C51       1.0  0.57568  0.18485  0.27558  1.0000
  C   C52       1.0  0.58238  0.15838  0.27416  1.0000
  H   H35       1.0  0.59252  0.15119  0.22092  1.0000
  C   C53       1.0  0.56326  0.26644  0.29080  1.0000
  C   C54       1.0  0.56864  0.23966  0.29061  1.0000
  H   H36       1.0  0.57325  0.27827  0.24813  1.0000
  C   C55       1.0  0.58934  0.22948  0.23146  1.0000
  C   C56       1.0  0.58309  0.20176  0.19922  1.0000
  H   H37       1.0  0.60738  0.22936  0.26919  1.0000
  H   H38       1.0  0.59208  0.24175  0.17259  1.0000
  H   H39       1.0  0.59985  0.19421  0.16355  1.0000
  H   H40       1.0  0.56698  0.20240  0.15215  1.0000
  C   C57       1.0  0.81646  0.57577  0.27145  1.0000
  C   C58       1.0  0.84290  0.58248  0.26993  1.0000
  H   H41       1.0  0.85005  0.59296  0.21730  1.0000
  C   C59       1.0  0.73496  0.56372  0.28834  1.0000
  C   C60       1.0  0.76174  0.56894  0.28756  1.0000
  H   H42       1.0  0.72321  0.57394  0.24632  1.0000
  C   C61       1.0  0.77201  0.58984  0.22900  1.0000
  C   C62       1.0  0.79952  0.58358  0.19586  1.0000
  H   H43       1.0  0.77239  0.60781  0.26743  1.0000
  H   H44       1.0  0.75970  0.59285  0.17053  1.0000
  H   H45       1.0  0.80717  0.60048  0.16073  1.0000
  H   H46       1.0  0.79862  0.56759  0.14810  1.0000
  C   C63       1.0  0.18484  0.42556  0.27535  1.0000
  C   C64       1.0  0.15836  0.41904  0.27393  1.0000
  H   H47       1.0  0.15104  0.40896  0.22065  1.0000
  C   C65       1.0  0.26638  0.43716  0.29077  1.0000
  C   C66       1.0  0.23959  0.43204  0.29053  1.0000
  H   H48       1.0  0.27802  0.42707  0.24801  1.0000
  C   C67       1.0  0.22911  0.41145  0.23110  1.0000
  C   C68       1.0  0.20158  0.41804  0.19891  1.0000
  H   H49       1.0  0.22868  0.39331  0.26859  1.0000
  H   H50       1.0  0.24130  0.40862  0.17221  1.0000
  H   H51       1.0  0.19378  0.40136  0.16293  1.0000
  H   H52       1.0  0.20250  0.43426  0.15211  1.0000
  C   C69       1.0  0.07350  0.13343  0.33552  1.0000
  C   C70       1.0  0.08896  0.12897  0.25957  1.0000
  C   C71       1.0  0.10650  0.10831  0.25812  1.0000
  C   C72       1.0  0.10944  0.09158  0.33266  1.0000
  C   C73       1.0  0.12560  0.06891  0.33112  1.0000
  C   C74       1.0  0.13218  0.05599  0.25054  1.0000
  C   C75       1.0  0.14504  0.03212  0.25133  1.0000
  C   C76       1.0  0.15188  0.02036  0.33294  1.0000
  H   H53       1.0  0.12622  0.06283  0.18991  1.0000
  H   H54       1.0  0.14827  0.02281  0.19193  1.0000
  H   H55       1.0  0.08667  0.13994  0.20312  1.0000
  H   H56       1.0  0.11698  0.10564  0.20105  1.0000
  C   C77       1.0  0.92710  0.86893  0.33882  1.0000
  C   C78       1.0  0.91070  0.87260  0.26475  1.0000
  C   C79       1.0  0.89313  0.89324  0.26332  1.0000
  C   C80       1.0  0.89110  0.91073  0.33608  1.0000
  C   C81       1.0  0.87492  0.93340  0.33413  1.0000
  C   C82       1.0  0.86723  0.94542  0.25307  1.0000
  C   C83       1.0  0.85435  0.96928  0.25281  1.0000
  C   C84       1.0  0.84874  0.98199  0.33385  1.0000
  H   H57       1.0  0.87233  0.93790  0.19247  1.0000
  H   H58       1.0  0.85030  0.97794  0.19283  1.0000
  H   H59       1.0  0.91230  0.86106  0.20940  1.0000
  H   H60       1.0  0.88196  0.89532  0.20755  1.0000
  C   C85       1.0  0.86727  0.07432  0.33553  1.0000
  C   C86       1.0  0.87242  0.08895  0.25797  1.0000
  C   C87       1.0  0.89334  0.10627  0.25567  1.0000
  C   C88       1.0  0.90968  0.10978  0.33086  1.0000
  C   C89       1.0  0.93262  0.12563  0.32865  1.0000
  C   C90       1.0  0.94603  0.13115  0.24807  1.0000
  C   C91       1.0  0.97003  0.14381  0.24862  1.0000
  C   C92       1.0  0.98141  0.15153  0.32997  1.0000
  H   H61       1.0  0.93942  0.12458  0.18786  1.0000
  H   H62       1.0  0.97964  0.14636  0.18940  1.0000
  H   H63       1.0  0.86178  0.08614  0.20106  1.0000
  H   H64       1.0  0.89652  0.11611  0.19747  1.0000
  C   C93       1.0  0.13306  0.92811  0.33642  1.0000
  C   C94       1.0  0.12776  0.91376  0.25837  1.0000
  C   C95       1.0  0.10687  0.89641  0.25595  1.0000
  C   C96       1.0  0.09071  0.89262  0.33143  1.0000
  C   C97       1.0  0.06783  0.87669  0.32924  1.0000
  C   C98       1.0  0.05425  0.87141  0.24884  1.0000
  C   C99       1.0  0.03029  0.85868  0.24958  1.0000
  C   C100      1.0  0.01913  0.85062  0.33091  1.0000
  H   H65       1.0  0.06068  0.87823  0.18872  1.0000
  H   H66       1.0  0.02053  0.85634  0.19056  1.0000
  H   H67       1.0  0.13830  0.91675  0.20136  1.0000
  H   H68       1.0  0.10360  0.88673  0.19747  1.0000
  C   C101      1.0  0.40514  0.59659  0.26263  1.0000
  C   C102      1.0  0.42320  0.61708  0.26137  1.0000
  H   H69       1.0  0.43341  0.62079  0.20409  1.0000
  C   C103      1.0  0.35486  0.53159  0.26388  1.0000
  C   C104      1.0  0.36786  0.55564  0.26404  1.0000
  H   H70       1.0  0.34961  0.52328  0.20437  1.0000
  C   C105      1.0  0.37372  0.56893  0.17810  1.0000
  C   C106      1.0  0.40110  0.58088  0.18025  1.0000
  H   H71       1.0  0.35960  0.58432  0.16856  1.0000
  H   H72       1.0  0.37230  0.55583  0.12087  1.0000
  H   H73       1.0  0.40354  0.59272  0.12018  1.0000
  H   H74       1.0  0.41549  0.56551  0.17855  1.0000
  C   C107      1.0  0.59526  0.40442  0.26184  1.0000
  C   C108      1.0  0.57707  0.38404  0.26207  1.0000
  H   H75       1.0  0.56598  0.38084  0.20642  1.0000
  C   C109      1.0  0.64559  0.46931  0.25965  1.0000
  C   C110      1.0  0.63266  0.44522  0.26002  1.0000
  H   H76       1.0  0.64980  0.47813  0.20003  1.0000
  C   C111      1.0  0.62542  0.43262  0.17409  1.0000
  C   C112      1.0  0.59808  0.42074  0.18030  1.0000
  H   H77       1.0  0.63931  0.41728  0.16051  1.0000
  H   H78       1.0  0.62602  0.44615  0.11789  1.0000
  H   H79       1.0  0.59466  0.40937  0.11971  1.0000
  H   H80       1.0  0.58374  0.43615  0.18272  1.0000
  C   C113      1.0  0.59746  0.59583  0.26019  1.0000
  C   C114      1.0  0.61790  0.57785  0.25969  1.0000
  H   H81       1.0  0.62130  0.56711  0.20333  1.0000
  C   C115      1.0  0.53251  0.64566  0.25976  1.0000
  C   C116      1.0  0.55654  0.63287  0.25994  1.0000
  H   H82       1.0  0.52391  0.65026  0.20019  1.0000
  C   C117      1.0  0.56938  0.62631  0.17391  1.0000
  C   C118      1.0  0.58138  0.59899  0.17837  1.0000
  H   H83       1.0  0.58463  0.64051  0.16189  1.0000
  H   H84       1.0  0.55604  0.62710  0.11733  1.0000
  H   H85       1.0  0.59289  0.59609  0.11790  1.0000
  H   H86       1.0  0.56610  0.58442  0.17920  1.0000
  C   C119      1.0  0.40331  0.40362  0.26345  1.0000
  C   C120      1.0  0.38291  0.42163  0.26266  1.0000
  H   H87       1.0  0.37923  0.43198  0.20564  1.0000
  C   C121      1.0  0.46841  0.35399  0.26382  1.0000
  C   C122      1.0  0.44433  0.36669  0.26421  1.0000
  H   H88       1.0  0.47674  0.34894  0.20421  1.0000
  C   C123      1.0  0.43103  0.37251  0.17838  1.0000
  C   C124      1.0  0.41895  0.39982  0.18093  1.0000
  H   H89       1.0  0.41577  0.35817  0.16869  1.0000
  H   H90       1.0  0.44408  0.37130  0.12109  1.0000
  H   H91       1.0  0.40708  0.40217  0.12100  1.0000
  H   H92       1.0  0.43418  0.41445  0.17924  1.0000
  C   C125      1.0  0.08106  0.38676  0.33294  1.0000
  C   C126      1.0  0.10735  0.39383  0.33678  1.0000
  C   C127      1.0  0.11504  0.42000  0.34141  1.0000
  C   C128      1.0  0.09581  0.43926  0.34323  1.0000
  C   C129      1.0  0.06926  0.43297  0.33845  1.0000
  C   C130      1.0  0.06231  0.40652  0.33255  1.0000
  H   H93       1.0  0.10133  0.45827  0.34495  1.0000
  H   H94       1.0  0.04323  0.40146  0.33181  1.0000
  H   H95       1.0  0.12112  0.37968  0.33642  1.0000
  C   C131      1.0  0.91969  0.61566  0.33501  1.0000
  C   C132      1.0  0.89351  0.60810  0.33575  1.0000
  C   C133      1.0  0.88628  0.58173  0.33738  1.0000
  C   C134      1.0  0.90586  0.56279  0.33852  1.0000
  C   C135      1.0  0.93219  0.56983  0.33796  1.0000
  C   C136      1.0  0.93885  0.59633  0.33610  1.0000
  H   H96       1.0  0.90090  0.54362  0.33981  1.0000
  H   H97       1.0  0.95789  0.60161  0.33586  1.0000
  H   H98       1.0  0.87950  0.62201  0.33526  1.0000
  C   C137      1.0  0.61464  0.08099  0.33234  1.0000
  C   C138      1.0  0.60762  0.10732  0.33633  1.0000
  C   C139      1.0  0.58153  0.11487  0.34122  1.0000
  C   C140      1.0  0.56233  0.09546  0.34315  1.0000
  C   C141      1.0  0.56859  0.06886  0.33829  1.0000
  C   C142      1.0  0.59494  0.06206  0.33212  1.0000
  H   H99       1.0  0.54338  0.10088  0.34489  1.0000
  H   H100      1.0  0.59999  0.04294  0.33131  1.0000
  H   H101      1.0  0.62172  0.12122  0.33594  1.0000
  C   C143      1.0  0.38534  0.91906  0.33481  1.0000
  C   C144      1.0  0.39274  0.89279  0.33563  1.0000
  C   C145      1.0  0.41898  0.88553  0.33733  1.0000
  C   C146      1.0  0.43799  0.90518  0.33831  1.0000
  C   C147      1.0  0.43113  0.93158  0.33767  1.0000
  C   C148      1.0  0.40476  0.93826  0.33588  1.0000
  H   H102      1.0  0.45707  0.90020  0.33960  1.0000
  H   H103      1.0  0.39964  0.95737  0.33572  1.0000
  H   H104      1.0  0.37880  0.87873  0.33515  1.0000
  C   C149      1.0  0.05336  0.15188  0.33313  1.0000
  C   C150      1.0  0.02756  0.14326  0.33427  1.0000
  C   C151      1.0  0.00701  0.16097  0.33101  1.0000
  C   C152      1.0  0.01246  0.18769  0.32826  1.0000
  C   C153      1.0  0.03817  0.19705  0.32756  1.0000
  C   C154      1.0  0.05841  0.17869  0.32892  1.0000
  H   H105      1.0  0.99741  0.20044  0.32824  1.0000
  H   H106      1.0  0.07717  0.18486  0.32711  1.0000
  H   H107      1.0  0.02367  0.12383  0.33607  1.0000
  C   C155      1.0  0.94720  0.85043  0.33594  1.0000
  C   C156      1.0  0.97303  0.85898  0.33609  1.0000
  C   C157      1.0  0.99353  0.84123  0.33242  1.0000
  C   C158      1.0  0.98803  0.81452  0.33006  1.0000
  C   C159      1.0  0.96229  0.80525  0.33026  1.0000
  C   C160      1.0  0.94208  0.82362  0.33222  1.0000
  H   H108      1.0  0.00303  0.80172  0.32953  1.0000
  H   H109      1.0  0.92332  0.81746  0.33127  1.0000
  H   H110      1.0  0.97697  0.87840  0.33760  1.0000
  C   C161      1.0  0.84875  0.05414  0.33394  1.0000
  C   C162      1.0  0.85718  0.02828  0.33657  1.0000
  C   C163      1.0  0.83943  0.00765  0.33297  1.0000
  C   C164      1.0  0.81284  0.01307  0.32842  1.0000
  C   C165      1.0  0.80367  0.03885  0.32690  1.0000
  C   C166      1.0  0.82207  0.05919  0.32844  1.0000
  H   H111      1.0  0.80005  0.99798  0.32837  1.0000
  H   H112      1.0  0.81602  0.07799  0.32583  1.0000
  H   H113      1.0  0.87653  0.02440  0.33940  1.0000
  C   C167      1.0  0.15163  0.94823  0.33531  1.0000
  C   C168      1.0  0.14326  0.97412  0.33647  1.0000
  C   C169      1.0  0.16112  0.99467  0.33380  1.0000
  C   C170      1.0  0.18772  0.98912  0.33163  1.0000
  C   C171      1.0  0.19679  0.96329  0.33118  1.0000
  C   C172      1.0  0.17830  0.94305  0.33191  1.0000
  H   H114      1.0  0.20057  0.00416  0.33194  1.0000
  H   H115      1.0  0.18426  0.92421  0.32997  1.0000
  H   H116      1.0  0.12392  0.97806  0.33780  1.0000
  C   C173      1.0  0.44773  0.65093  0.33882  1.0000
  C   C174      1.0  0.47353  0.64251  0.33765  1.0000
  C   C175      1.0  0.49403  0.66042  0.33952  1.0000
  C   C176      1.0  0.48851  0.68710  0.34096  1.0000
  C   C177      1.0  0.46277  0.69624  0.34179  1.0000
  C   C178      1.0  0.44258  0.67769  0.34175  1.0000
  H   H117      1.0  0.50352  0.69998  0.34013  1.0000
  H   H118      1.0  0.42381  0.68367  0.34393  1.0000
  H   H119      1.0  0.47745  0.62310  0.33669  1.0000
  C   C179      1.0  0.55363  0.34958  0.34040  1.0000
  C   C180      1.0  0.52781  0.35795  0.33963  1.0000
  C   C181      1.0  0.50733  0.34003  0.34276  1.0000
  C   C182      1.0  0.51287  0.31336  0.34510  1.0000
  C   C183      1.0  0.53862  0.30427  0.34560  1.0000
  C   C184      1.0  0.55880  0.32283  0.34431  1.0000
  H   H120      1.0  0.49788  0.30046  0.34516  1.0000
  H   H121      1.0  0.57757  0.31685  0.34600  1.0000
  H   H122      1.0  0.52385  0.37734  0.33804  1.0000
  C   C185      1.0  0.65196  0.55406  0.33778  1.0000
  C   C186      1.0  0.64345  0.52816  0.33649  1.0000
  C   C187      1.0  0.66116  0.50761  0.33956  1.0000
  C   C188      1.0  0.68779  0.51315  0.34223  1.0000
  C   C189      1.0  0.69705  0.53897  0.34292  1.0000
  C   C190      1.0  0.67868  0.55922  0.34183  1.0000
  H   H123      1.0  0.70053  0.49809  0.34197  1.0000
  H   H124      1.0  0.68476  0.57805  0.34380  1.0000
  H   H125      1.0  0.62408  0.52420  0.33483  1.0000
  C   C191      1.0  0.34944  0.44614  0.34105  1.0000
  C   C192      1.0  0.35814  0.47198  0.34029  1.0000
  C   C193      1.0  0.34055  0.49264  0.34301  1.0000
  C   C194      1.0  0.31389  0.48728  0.34504  1.0000
  C   C195      1.0  0.30448  0.46152  0.34565  1.0000
  C   C196      1.0  0.32270  0.44114  0.34457  1.0000
  H   H126      1.0  0.30123  0.50241  0.34495  1.0000
  H   H127      1.0  0.31649  0.42235  0.34645  1.0000
  H   H128      1.0  0.37753  0.47580  0.33901  1.0000
  C   C197      1.0  0.95171  0.55066  0.33995  1.0000
  C   C198      1.0  0.96807  0.54830  0.41478  1.0000
  C   C199      1.0  0.98744  0.52938  0.41692  1.0000
  C   C200      1.0  0.99174  0.51249  0.34359  1.0000
  C   C201      1.0  0.01137  0.49268  0.34390  1.0000
  C   C202      1.0  0.03270  0.49296  0.40320  1.0000
  C   C203      1.0  0.05154  0.47351  0.40133  1.0000
  C   C204      1.0  0.05004  0.45279  0.33999  1.0000
  H   H129      1.0  0.03528  0.50764  0.44791  1.0000
  H   H130      1.0  0.06632  0.47450  0.44654  1.0000
  H   H131      1.0  0.96564  0.56003  0.46929  1.0000
  H   H132      1.0  0.99803  0.52797  0.47423  1.0000
  C   C205      1.0  0.45039  0.95113  0.33969  1.0000
  C   C206      1.0  0.45286  0.96752  0.41454  1.0000
  C   C207      1.0  0.47192  0.98687  0.41688  1.0000
  C   C208      1.0  0.48888  0.99108  0.34374  1.0000
  C   C209      1.0  0.50881  0.01071  0.34420  1.0000
  C   C210      1.0  0.50864  0.03213  0.40339  1.0000
  C   C211      1.0  0.52815  0.05102  0.40149  1.0000
  C   C212      1.0  0.54880  0.04951  0.34014  1.0000
  H   H133      1.0  0.49400  0.03476  0.44797  1.0000
  H   H134      1.0  0.52723  0.06588  0.44657  1.0000
  H   H135      1.0  0.44109  0.96514  0.46896  1.0000
  H   H136      1.0  0.47340  0.99748  0.47420  1.0000
  C   C213      1.0  0.07452  0.31686  0.39913  1.0000
  C   C214      1.0  0.08131  0.34334  0.40057  1.0000
  H   H137      1.0  0.09156  0.35053  0.45364  1.0000
  C   C215      1.0  0.06261  0.23514  0.38263  1.0000
  C   C216      1.0  0.06780  0.26199  0.38326  1.0000
  H   H138      1.0  0.07266  0.22339  0.42517  1.0000
  C   C217      1.0  0.08841  0.27235  0.44266  1.0000
  C   C218      1.0  0.08196  0.29994  0.47532  1.0000
  H   H139      1.0  0.10646  0.27276  0.40501  1.0000
  H   H140      1.0  0.09122  0.26004  0.50134  1.0000
  H   H141      1.0  0.09861  0.30765  0.51143  1.0000
  H   H142      1.0  0.06578  0.29902  0.52212  1.0000
  C   C219      1.0  0.92649  0.68537  0.40289  1.0000
  C   C220      1.0  0.91976  0.65886  0.40430  1.0000
  H   H143      1.0  0.91015  0.65145  0.45844  1.0000
  C   C221      1.0  0.93837  0.76715  0.38753  1.0000
  C   C222      1.0  0.93317  0.74029  0.38816  1.0000
  H   H144      1.0  0.92879  0.77884  0.43155  1.0000
  C   C223      1.0  0.91326  0.72979  0.45014  1.0000
  C   C224      1.0  0.91998  0.70205  0.48071  1.0000
  H   H145      1.0  0.89476  0.72959  0.41521  1.0000
  H   H146      1.0  0.91125  0.74191  0.50968  1.0000
  H   H147      1.0  0.90371  0.69427  0.51870  1.0000
  H   H148      1.0  0.93666  0.70275  0.52531  1.0000
  C   C225      1.0  0.68430  0.07462  0.39853  1.0000
  C   C226      1.0  0.65790  0.08130  0.40010  1.0000
  H   H149      1.0  0.65073  0.09139  0.45348  1.0000
  C   C227      1.0  0.76576  0.06318  0.38188  1.0000
  C   C228      1.0  0.73899  0.06825  0.38252  1.0000
  H   H150      1.0  0.77747  0.07321  0.42476  1.0000
  C   C229      1.0  0.72867  0.08871  0.44257  1.0000
  C   C230      1.0  0.70116  0.08197  0.47501  1.0000
  H   H151      1.0  0.72825  0.10691  0.40552  1.0000
  H   H152      1.0  0.74094  0.09145  0.50135  1.0000
  H   H153      1.0  0.69347  0.09852  0.51170  1.0000
  H   H154      1.0  0.70207  0.06561  0.52122  1.0000
  C   C231      1.0  0.31572  0.92551  0.40167  1.0000
  C   C232      1.0  0.34205  0.91851  0.40271  1.0000
  H   H155      1.0  0.34919  0.90824  0.45573  1.0000
  C   C233      1.0  0.23441  0.93855  0.38671  1.0000
  C   C234      1.0  0.26110  0.93305  0.38717  1.0000
  H   H156      1.0  0.22256  0.92858  0.42930  1.0000
  C   C235      1.0  0.27112  0.91227  0.44649  1.0000
  C   C236      1.0  0.29886  0.91826  0.47825  1.0000
  H   H157      1.0  0.27099  0.89412  0.40908  1.0000
  H   H158      1.0  0.25893  0.90974  0.50559  1.0000
  H   H159      1.0  0.30627  0.90139  0.51390  1.0000
  H   H160      1.0  0.29845  0.93444  0.52526  1.0000
  C   C237      1.0  0.42609  0.85898  0.33869  1.0000
  C   C238      1.0  0.44106  0.84891  0.40924  1.0000
  C   C239      1.0  0.44767  0.82259  0.41157  1.0000
  C   C240      1.0  0.44017  0.80530  0.34252  1.0000
  C   C241      1.0  0.44621  0.77800  0.34370  1.0000
  C   C242      1.0  0.46597  0.76729  0.39758  1.0000
  C   C243      1.0  0.47135  0.74068  0.39701  1.0000
  C   C244      1.0  0.45732  0.72339  0.34228  1.0000
  H   H161      1.0  0.47721  0.77872  0.43733  1.0000
  H   H162      1.0  0.48553  0.73398  0.43845  1.0000
  H   H163      1.0  0.44667  0.86057  0.46110  1.0000
  H   H164      1.0  0.45760  0.81627  0.46623  1.0000
  C   C245      1.0  0.57475  0.14149  0.34350  1.0000
  C   C246      1.0  0.56029  0.15170  0.41507  1.0000
  C   C247      1.0  0.55385  0.17807  0.41760  1.0000
  C   C248      1.0  0.56100  0.19523  0.34774  1.0000
  C   C249      1.0  0.55509  0.22255  0.34888  1.0000
  C   C250      1.0  0.53563  0.23340  0.40374  1.0000
  C   C251      1.0  0.53030  0.26002  0.40281  1.0000
  C   C252      1.0  0.54408  0.27715  0.34674  1.0000
  H   H165      1.0  0.52457  0.22207  0.44441  1.0000
  H   H166      1.0  0.51632  0.26684  0.44485  1.0000
  H   H167      1.0  0.55490  0.14011  0.46738  1.0000
  H   H168      1.0  0.54428  0.18450  0.47287  1.0000
  C   C253      1.0  0.85979  0.57451  0.33857  1.0000
  C   C254      1.0  0.84960  0.55970  0.40951  1.0000
  C   C255      1.0  0.82327  0.55327  0.41217  1.0000
  C   C256      1.0  0.80608  0.56080  0.34311  1.0000
  C   C257      1.0  0.77877  0.55505  0.34476  1.0000
  C   C258      1.0  0.76782  0.53546  0.39926  1.0000
  C   C259      1.0  0.74121  0.53029  0.39894  1.0000
  C   C260      1.0  0.72416  0.54438  0.34384  1.0000
  H   H169      1.0  0.77905  0.52416  0.43921  1.0000
  H   H170      1.0  0.73434  0.51619  0.44067  1.0000
  H   H171      1.0  0.86116  0.55415  0.46153  1.0000
  H   H172      1.0  0.81685  0.54349  0.46717  1.0000
  C   C261      1.0  0.14164  0.42675  0.34342  1.0000
  C   C262      1.0  0.15204  0.44111  0.41513  1.0000
  C   C263      1.0  0.17842  0.44736  0.41765  1.0000
  C   C264      1.0  0.19542  0.44009  0.34770  1.0000
  C   C265      1.0  0.22275  0.44574  0.34893  1.0000
  C   C266      1.0  0.23388  0.46509  0.40402  1.0000
  C   C267      1.0  0.26050  0.47020  0.40310  1.0000
  C   C268      1.0  0.27736  0.45625  0.34686  1.0000
  H   H173      1.0  0.22277  0.47626  0.44480  1.0000
  H   H174      1.0  0.26753  0.48412  0.44524  1.0000
  H   H175      1.0  0.14056  0.44654  0.46755  1.0000
  H   H176      1.0  0.18499  0.45684  0.47304  1.0000
  C   C269      1.0  0.09513  0.09737  0.41161  1.0000
  C   C270      1.0  0.07689  0.11759  0.41141  1.0000
  H   H177      1.0  0.06577  0.12066  0.46703  1.0000
  C   C271      1.0  0.14561  0.03290  0.41373  1.0000
  C   C272      1.0  0.13264  0.05689  0.41341  1.0000
  H   H178      1.0  0.14979  0.02408  0.47334  1.0000
  C   C273      1.0  0.12533  0.06938  0.49936  1.0000
  C   C274      1.0  0.09796  0.08103  0.49308  1.0000
  H   H179      1.0  0.13917  0.08485  0.51310  1.0000
  H   H180      1.0  0.12594  0.05584  0.55551  1.0000
  H   H181      1.0  0.09449  0.09234  0.55371  1.0000
  H   H182      1.0  0.08366  0.06550  0.49050  1.0000
  C   C275      1.0  0.90637  0.90576  0.41351  1.0000
  C   C276      1.0  0.92460  0.88555  0.41314  1.0000
  H   H183      1.0  0.93637  0.88304  0.46748  1.0000
  C   C277      1.0  0.85612  0.97035  0.41511  1.0000
  C   C278      1.0  0.86899  0.94632  0.41584  1.0000
  H   H184      1.0  0.85273  0.97981  0.47414  1.0000
  C   C279      1.0  0.87732  0.93470  0.50214  1.0000
  C   C280      1.0  0.90457  0.92294  0.49325  1.0000
  H   H185      1.0  0.86364  0.91942  0.51978  1.0000
  H   H186      1.0  0.87741  0.94881  0.55663  1.0000
  H   H187      1.0  0.90877  0.91225  0.55468  1.0000
  H   H188      1.0  0.91884  0.93840  0.48666  1.0000
  C   C281      1.0  0.90320  0.09638  0.41122  1.0000
  C   C282      1.0  0.88272  0.07833  0.41200  1.0000
  H   H189      1.0  0.87919  0.06776  0.46870  1.0000
  C   C283      1.0  0.96841  0.14629  0.41077  1.0000
  C   C284      1.0  0.94431  0.13346  0.41069  1.0000
  H   H190      1.0  0.97693  0.15115  0.47029  1.0000
  C   C285      1.0  0.93129  0.12722  0.49674  1.0000
  C   C286      1.0  0.91914  0.09988  0.49327  1.0000
  H   H191      1.0  0.91611  0.14145  0.50782  1.0000
  H   H192      1.0  0.94454  0.12822  0.55355  1.0000
  H   H193      1.0  0.90748  0.09721  0.55358  1.0000
  H   H194      1.0  0.93433  0.08530  0.49354  1.0000
  C   C287      1.0  0.09732  0.90578  0.41215  1.0000
  C   C288      1.0  0.11778  0.92386  0.41312  1.0000
  H   H195      1.0  0.12143  0.93424  0.47013  1.0000
  C   C289      1.0  0.03233  0.85561  0.41154  1.0000
  C   C290      1.0  0.05637  0.86853  0.41130  1.0000
  H   H196      1.0  0.02396  0.85055  0.47110  1.0000
  C   C291      1.0  0.06955  0.87457  0.49724  1.0000
  C   C292      1.0  0.08156  0.90198  0.49446  1.0000
  H   H197      1.0  0.08483  0.86037  0.50737  1.0000
  H   H198      1.0  0.05644  0.87332  0.55436  1.0000
  H   H199      1.0  0.09332  0.90453  0.55458  1.0000
  H   H200      1.0  0.06630  0.91647  0.49557  1.0000
  C   C293      1.0  0.42766  0.63232  0.33814  1.0000
  C   C294      1.0  0.41355  0.62694  0.41657  1.0000
  C   C295      1.0  0.39621  0.60602  0.41924  1.0000
  C   C296      1.0  0.39221  0.58991  0.34365  1.0000
  C   C297      1.0  0.37626  0.56700  0.34600  1.0000
  C   C298      1.0  0.37116  0.55330  0.42638  1.0000
  C   C299      1.0  0.35837  0.52933  0.42572  1.0000
  C   C300      1.0  0.35007  0.51827  0.34448  1.0000
  H   H201      1.0  0.37814  0.55966  0.48637  1.0000
  H   H202      1.0  0.35615  0.51948  0.48468  1.0000
  H   H203      1.0  0.41669  0.63745  0.47361  1.0000
  H   H204      1.0  0.38670  0.60270  0.47796  1.0000
  C   C301      1.0  0.57371  0.36820  0.33804  1.0000
  C   C302      1.0  0.58913  0.37283  0.41404  1.0000
  C   C303      1.0  0.60661  0.39364  0.41545  1.0000
  C   C304      1.0  0.60952  0.41036  0.34084  1.0000
  C   C305      1.0  0.62562  0.43318  0.34234  1.0000
  C   C306      1.0  0.63213  0.44617  0.42290  1.0000
  C   C307      1.0  0.64496  0.47013  0.42208  1.0000
  C   C308      1.0  0.65180  0.48192  0.34043  1.0000
  H   H205      1.0  0.62617  0.43931  0.48354  1.0000
  H   H206      1.0  0.64818  0.47948  0.48146  1.0000
  H   H207      1.0  0.58685  0.36186  0.47052  1.0000
  H   H208      1.0  0.61707  0.39642  0.47254  1.0000
  C   C309      1.0  0.63348  0.57416  0.33595  1.0000
  C   C310      1.0  0.62851  0.58901  0.41306  1.0000
  C   C311      1.0  0.60764  0.60628  0.41511  1.0000
  C   C312      1.0  0.59118  0.60950  0.34013  1.0000
  C   C313      1.0  0.56832  0.62534  0.34209  1.0000
  C   C314      1.0  0.55507  0.63114  0.42267  1.0000
  C   C315      1.0  0.53113  0.64376  0.42200  1.0000
  C   C316      1.0  0.51965  0.65117  0.34055  1.0000
  H   H209      1.0  0.56174  0.62479  0.48303  1.0000
  H   H210      1.0  0.52161  0.64647  0.48128  1.0000
  H   H211      1.0  0.63924  0.58643  0.46983  1.0000
  H   H212      1.0  0.60460  0.61631  0.47297  1.0000
  C   C317      1.0  0.36778  0.42593  0.33961  1.0000
  C   C318      1.0  0.37314  0.41168  0.41772  1.0000
  C   C319      1.0  0.39397  0.39438  0.41995  1.0000
  C   C320      1.0  0.41002  0.39058  0.34424  1.0000
  C   C321      1.0  0.43293  0.37483  0.34631  1.0000
  C   C322      1.0  0.44662  0.36976  0.42660  1.0000
  C   C323      1.0  0.47061  0.35726  0.42571  1.0000
  C   C324      1.0  0.48171  0.34923  0.34433  1.0000
  H   H213      1.0  0.44023  0.37659  0.48672  1.0000
  H   H214      1.0  0.48044  0.35507  0.48465  1.0000
  H   H215      1.0  0.36273  0.41473  0.47495  1.0000
  H   H216      1.0  0.39733  0.38480  0.47852  1.0000
