data_image0
_chemical_formula_structural       CHNC3HNCH2CH2C4NC2HNC2HNC2HNC2HNC2HNC2HCNCHCNCHNC2NCHCNCHCHCNCHCNCHCNCHCNCHCNCHCNCHCNCNCNC15H10CNCNCNC18H12CNCNCNC15H10CNCNCNC18H12CNCNCNC18H12CNCNCNC18H12CNCNCNC18H12CNCNCNC18H12CNCNCNC18H12CNCNCNC18H12CNCNCNC18H12CNCNCNC18H12CNCHCNCHCNCHCNCHCNCHCNCHNC2HNC2HN2C2HNC2HC2HNC2HNC2HNC2HNC2HNC2HNC2H
_chemical_formula_sum              "C324 H180 N72"
_cell_length_a       74.0717
_cell_length_b       74.0716
_cell_length_c       14.978
_cell_angle_alpha    90
_cell_angle_beta     90
_cell_angle_gamma    120

_space_group_name_H-M_alt    "P 1"
_space_group_IT_number       1

loop_
  _space_group_symop_operation_xyz
  'x, y, z'

loop_
  _atom_site_type_symbol
  _atom_site_label
  _atom_site_symmetry_multiplicity
  _atom_site_fract_x
  _atom_site_fract_y
  _atom_site_fract_z
  _atom_site_occupancy
  C   C1        1.0  0.00680  0.79854  0.25433  1.0000
  H   H1        1.0  0.01419  0.80225  0.19385  1.0000
  N   N1        1.0  0.00764  0.19565  0.25642  1.0000
  C   C2        1.0  0.01834  0.20100  0.33470  1.0000
  C   C3        1.0  0.00680  0.79853  0.41509  1.0000
  C   C4        1.0  0.01828  0.80429  0.33472  1.0000
  H   H2        1.0  0.01418  0.80225  0.47558  1.0000
  N   N2        1.0  0.00764  0.19565  0.41299  1.0000
  C   C5        1.0  0.04023  0.21189  0.33470  1.0000
  H   H3        1.0  0.04351  0.18503  0.33470  1.0000
  H   H4        1.0  0.04374  0.24212  0.33471  1.0000
  C   C6        1.0  0.04030  0.81537  0.33472  1.0000
  H   H5        1.0  0.04383  0.78866  0.33474  1.0000
  H   H6        1.0  0.04358  0.84551  0.33472  1.0000
  C   C7        1.0  0.05132  0.20099  0.33470  1.0000
  C   C8        1.0  0.05144  0.23386  0.33471  1.0000
  C   C9        1.0  0.05153  0.80462  0.33474  1.0000
  C   C10       1.0  0.05139  0.83735  0.33473  1.0000
  N   N3        1.0  0.20016  0.39885  0.25657  1.0000
  C   C11       1.0  0.18957  0.37769  0.25448  1.0000
  C   C12       1.0  0.18383  0.36623  0.33489  1.0000
  H   H7        1.0  0.18587  0.37030  0.19400  1.0000
  N   N4        1.0  0.58960  0.78829  0.25658  1.0000
  C   C13       1.0  0.61076  0.79885  0.25448  1.0000
  C   C14       1.0  0.62222  0.80458  0.33490  1.0000
  H   H8        1.0  0.61815  0.80255  0.19400  1.0000
  N   N5        1.0  0.20014  0.78827  0.25658  1.0000
  C   C15       1.0  0.18958  0.79887  0.25448  1.0000
  C   C16       1.0  0.18386  0.80461  0.33490  1.0000
  H   H9        1.0  0.18589  0.80257  0.19400  1.0000
  N   N6        1.0  0.79311  0.58478  0.25658  1.0000
  C   C17       1.0  0.80371  0.60593  0.25448  1.0000
  C   C18       1.0  0.80944  0.61739  0.33490  1.0000
  H   H10       1.0  0.80741  0.61332  0.19400  1.0000
  N   N7        1.0  0.40367  0.19531  0.25658  1.0000
  C   C19       1.0  0.38252  0.18475  0.25448  1.0000
  C   C20       1.0  0.37105  0.17903  0.33490  1.0000
  H   H11       1.0  0.37512  0.18106  0.19400  1.0000
  N   N8        1.0  0.79312  0.19532  0.25658  1.0000
  C   C21       1.0  0.80368  0.18473  0.25448  1.0000
  C   C22       1.0  0.80941  0.17900  0.33490  1.0000
  H   H12       1.0  0.80738  0.18104  0.19400  1.0000
  C   C23       1.0  0.18990  0.19523  0.25433  1.0000
  N   N9        1.0  0.20048  0.18465  0.25642  1.0000
  C   C24       1.0  0.20583  0.17930  0.33470  1.0000
  H   H13       1.0  0.18619  0.19891  0.19385  1.0000
  C   C25       1.0  0.79321  0.98164  0.25433  1.0000
  N   N10       1.0  0.80379  0.00281  0.25642  1.0000
  C   C26       1.0  0.80914  0.01350  0.33470  1.0000
  H   H14       1.0  0.78953  0.97425  0.19385  1.0000
  N   N11       1.0  0.98564  0.78796  0.25642  1.0000
  C   C27       1.0  0.97494  0.78261  0.33470  1.0000
  C   C28       1.0  0.80337  0.78838  0.25433  1.0000
  N   N12       1.0  0.79279  0.79896  0.25642  1.0000
  C   C29       1.0  0.78744  0.80431  0.33470  1.0000
  H   H15       1.0  0.80708  0.78470  0.19385  1.0000
  C   C30       1.0  0.20006  0.00197  0.25433  1.0000
  N   N13       1.0  0.18948  0.98080  0.25642  1.0000
  C   C31       1.0  0.18413  0.97010  0.33470  1.0000
  H   H16       1.0  0.20374  0.00936  0.19385  1.0000
  C   C32       1.0  0.98648  0.18507  0.25433  1.0000
  H   H17       1.0  0.97909  0.18136  0.19385  1.0000
  C   C33       1.0  0.21057  0.58997  0.25430  1.0000
  N   N14       1.0  0.21135  0.60865  0.25664  1.0000
  C   C34       1.0  0.21094  0.61783  0.33452  1.0000
  H   H18       1.0  0.21255  0.58467  0.19408  1.0000
  C   C35       1.0  0.39848  0.60755  0.25421  1.0000
  N   N15       1.0  0.37979  0.58965  0.25663  1.0000
  C   C36       1.0  0.37061  0.58008  0.33454  1.0000
  H   H19       1.0  0.40377  0.61482  0.19398  1.0000
  C   C37       1.0  0.38084  0.77784  0.25435  1.0000
  N   N16       1.0  0.39872  0.77701  0.25696  1.0000
  C   C38       1.0  0.40833  0.77742  0.33484  1.0000
  H   H20       1.0  0.37358  0.77583  0.19408  1.0000
  C   C39       1.0  0.78270  0.39364  0.25427  1.0000
  N   N17       1.0  0.78187  0.37493  0.25694  1.0000
  C   C40       1.0  0.78225  0.36573  0.33486  1.0000
  H   H21       1.0  0.78070  0.39889  0.19399  1.0000
  C   C41       1.0  0.59481  0.37601  0.25435  1.0000
  N   N18       1.0  0.61351  0.39388  0.25696  1.0000
  C   C42       1.0  0.62271  0.40349  0.33484  1.0000
  H   H22       1.0  0.58956  0.36875  0.19408  1.0000
  C   C43       1.0  0.61239  0.20571  0.25421  1.0000
  N   N19       1.0  0.59448  0.20649  0.25663  1.0000
  C   C44       1.0  0.58492  0.20611  0.33454  1.0000
  H   H23       1.0  0.61965  0.20768  0.19398  1.0000
  C   C45       1.0  0.13941  0.24512  0.33477  1.0000
  N   N20       1.0  0.14950  0.26632  0.33480  1.0000
  C   C46       1.0  0.13940  0.27742  0.33481  1.0000
  N   N21       1.0  0.11821  0.26631  0.33478  1.0000
  C   C47       1.0  0.10710  0.24511  0.33476  1.0000
  N   N22       1.0  0.11820  0.23501  0.33474  1.0000
  C   C48       1.0  0.15054  0.29968  0.33484  1.0000
  C   C49       1.0  0.17265  0.31115  0.33486  1.0000
  C   C50       1.0  0.18366  0.33309  0.33488  1.0000
  C   C51       1.0  0.17283  0.34424  0.33488  1.0000
  C   C52       1.0  0.15085  0.33310  0.33487  1.0000
  C   C53       1.0  0.13991  0.31116  0.33485  1.0000
  C   C54       1.0  0.15062  0.23405  0.33476  1.0000
  C   C55       1.0  0.17274  0.24475  0.33475  1.0000
  C   C56       1.0  0.18382  0.23388  0.33474  1.0000
  C   C57       1.0  0.17307  0.21190  0.33472  1.0000
  C   C58       1.0  0.15109  0.20101  0.33473  1.0000
  C   C59       1.0  0.14007  0.21194  0.33474  1.0000
  C   C60       1.0  0.08482  0.23404  0.33473  1.0000
  C   C61       1.0  0.07327  0.21193  0.33472  1.0000
  C   C62       1.0  0.07339  0.24473  0.33472  1.0000
  H   H24       1.0  0.19978  0.24214  0.33474  1.0000
  H   H25       1.0  0.18116  0.26069  0.33476  1.0000
  H   H26       1.0  0.14293  0.18505  0.33472  1.0000
  H   H27       1.0  0.12413  0.20343  0.33474  1.0000
  H   H28       1.0  0.08070  0.20342  0.33472  1.0000
  H   H29       1.0  0.08091  0.26067  0.33473  1.0000
  H   H30       1.0  0.12397  0.30369  0.33484  1.0000
  H   H31       1.0  0.14265  0.34086  0.33488  1.0000
  H   H32       1.0  0.19962  0.34084  0.33488  1.0000
  H   H33       1.0  0.18111  0.30367  0.33484  1.0000
  C   C63       1.0  0.74333  0.88127  0.33477  1.0000
  N   N23       1.0  0.72213  0.87016  0.33480  1.0000
  C   C64       1.0  0.71103  0.84896  0.33481  1.0000
  N   N24       1.0  0.72213  0.83887  0.33478  1.0000
  C   C65       1.0  0.74333  0.84896  0.33476  1.0000
  N   N25       1.0  0.75344  0.87017  0.33474  1.0000
  C   C66       1.0  0.68877  0.83784  0.33484  1.0000
  C   C67       1.0  0.67730  0.84848  0.33486  1.0000
  C   C68       1.0  0.65536  0.83754  0.33488  1.0000
  C   C69       1.0  0.64421  0.81557  0.33489  1.0000
  C   C70       1.0  0.65535  0.80473  0.33488  1.0000
  C   C71       1.0  0.67729  0.81573  0.33485  1.0000
  C   C72       1.0  0.75439  0.90354  0.33476  1.0000
  C   C73       1.0  0.74370  0.91497  0.33476  1.0000
  C   C74       1.0  0.75456  0.93691  0.33474  1.0000
  C   C75       1.0  0.77654  0.94815  0.33472  1.0000
  C   C76       1.0  0.78743  0.93705  0.33473  1.0000
  C   C77       1.0  0.77650  0.91510  0.33474  1.0000
  C   C78       1.0  0.75440  0.83775  0.33473  1.0000
  C   C79       1.0  0.77651  0.84831  0.33472  1.0000
  C   C80       1.0  0.78745  0.83730  0.33470  1.0000
  C   C81       1.0  0.77655  0.81532  0.33470  1.0000
  C   C82       1.0  0.75458  0.80456  0.33471  1.0000
  C   C83       1.0  0.74371  0.81563  0.33472  1.0000
  H   H34       1.0  0.74630  0.94461  0.33474  1.0000
  H   H35       1.0  0.72776  0.90744  0.33476  1.0000
  H   H36       1.0  0.80339  0.94486  0.33472  1.0000
  H   H37       1.0  0.78501  0.90768  0.33474  1.0000
  H   H38       1.0  0.78502  0.86425  0.33472  1.0000
  H   H39       1.0  0.80341  0.84546  0.33470  1.0000
  H   H40       1.0  0.72777  0.80721  0.33473  1.0000
  H   H41       1.0  0.74632  0.78860  0.33471  1.0000
  H   H42       1.0  0.68476  0.80726  0.33484  1.0000
  H   H43       1.0  0.64758  0.78876  0.33488  1.0000
  H   H44       1.0  0.64760  0.84575  0.33488  1.0000
  H   H45       1.0  0.68477  0.86441  0.33484  1.0000
  C   C84       1.0  0.10717  0.84903  0.33477  1.0000
  N   N26       1.0  0.11828  0.83895  0.33480  1.0000
  C   C85       1.0  0.13948  0.84904  0.33481  1.0000
  N   N27       1.0  0.14957  0.87024  0.33478  1.0000
  C   C86       1.0  0.13948  0.88135  0.33476  1.0000
  N   N28       1.0  0.11827  0.87024  0.33474  1.0000
  C   C87       1.0  0.15060  0.83791  0.33484  1.0000
  C   C88       1.0  0.13996  0.81579  0.33486  1.0000
  C   C89       1.0  0.15089  0.80478  0.33488  1.0000
  C   C90       1.0  0.17287  0.81561  0.33488  1.0000
  C   C91       1.0  0.18371  0.83759  0.33487  1.0000
  C   C92       1.0  0.17272  0.84854  0.33485  1.0000
  C   C93       1.0  0.08490  0.83782  0.33476  1.0000
  C   C94       1.0  0.07348  0.81571  0.33475  1.0000
  C   C95       1.0  0.07334  0.84837  0.33474  1.0000
  C   C96       1.0  0.15069  0.90362  0.33473  1.0000
  C   C97       1.0  0.14013  0.91517  0.33472  1.0000
  C   C98       1.0  0.15114  0.93712  0.33470  1.0000
  C   C99       1.0  0.17312  0.94821  0.33470  1.0000
  C   C100      1.0  0.18388  0.93700  0.33471  1.0000
  C   C101      1.0  0.17280  0.91505  0.33472  1.0000
  H   H46       1.0  0.08100  0.80729  0.33476  1.0000
  H   H47       1.0  0.08076  0.86431  0.33475  1.0000
  H   H48       1.0  0.12419  0.90775  0.33472  1.0000
  H   H49       1.0  0.14298  0.94493  0.33470  1.0000
  H   H50       1.0  0.18123  0.90753  0.33474  1.0000
  H   H51       1.0  0.19984  0.94470  0.33471  1.0000
  H   H52       1.0  0.18119  0.86447  0.33484  1.0000
  H   H53       1.0  0.19968  0.84579  0.33488  1.0000
  H   H54       1.0  0.14269  0.78882  0.33488  1.0000
  H   H55       1.0  0.12402  0.80733  0.33484  1.0000
  C   C102      1.0  0.85386  0.73850  0.33477  1.0000
  N   N29       1.0  0.84378  0.71730  0.33480  1.0000
  C   C103      1.0  0.85387  0.70620  0.33481  1.0000
  N   N30       1.0  0.87507  0.71730  0.33478  1.0000
  C   C104      1.0  0.88618  0.73850  0.33476  1.0000
  N   N31       1.0  0.87508  0.74861  0.33474  1.0000
  C   C105      1.0  0.84274  0.68395  0.33484  1.0000
  C   C106      1.0  0.82063  0.67248  0.33486  1.0000
  C   C107      1.0  0.80962  0.65053  0.33488  1.0000
  C   C108      1.0  0.82045  0.63938  0.33489  1.0000
  C   C109      1.0  0.84243  0.65052  0.33488  1.0000
  C   C110      1.0  0.85337  0.67246  0.33485  1.0000
  C   C111      1.0  0.84266  0.74957  0.33476  1.0000
  C   C112      1.0  0.82054  0.73887  0.33475  1.0000
  C   C113      1.0  0.80946  0.74973  0.33474  1.0000
  C   C114      1.0  0.82020  0.77171  0.33472  1.0000
  C   C115      1.0  0.84218  0.78261  0.33473  1.0000
  C   C116      1.0  0.85321  0.77168  0.33474  1.0000
  C   C117      1.0  0.90845  0.74958  0.33473  1.0000
  C   C118      1.0  0.92001  0.77169  0.33472  1.0000
  C   C119      1.0  0.94196  0.78262  0.33470  1.0000
  C   C120      1.0  0.95304  0.77173  0.33470  1.0000
  C   C121      1.0  0.94183  0.74975  0.33471  1.0000
  C   C122      1.0  0.91988  0.73888  0.33472  1.0000
  H   H56       1.0  0.79350  0.74147  0.33474  1.0000
  H   H57       1.0  0.81212  0.72293  0.33476  1.0000
  H   H58       1.0  0.85034  0.79857  0.33472  1.0000
  H   H59       1.0  0.86914  0.78019  0.33474  1.0000
  H   H60       1.0  0.91258  0.78019  0.33472  1.0000
  H   H61       1.0  0.94976  0.79859  0.33470  1.0000
  H   H62       1.0  0.91236  0.72294  0.33473  1.0000
  H   H63       1.0  0.94953  0.74150  0.33471  1.0000
  H   H64       1.0  0.86931  0.67993  0.33484  1.0000
  H   H65       1.0  0.85063  0.64276  0.33488  1.0000
  H   H66       1.0  0.79366  0.64278  0.33488  1.0000
  H   H67       1.0  0.81217  0.67995  0.33484  1.0000
  C   C123      1.0  0.24994  0.10234  0.33477  1.0000
  N   N32       1.0  0.27114  0.11345  0.33480  1.0000
  C   C124      1.0  0.28224  0.13465  0.33481  1.0000
  N   N33       1.0  0.27114  0.14474  0.33478  1.0000
  C   C125      1.0  0.24994  0.13465  0.33476  1.0000
  N   N34       1.0  0.23983  0.11344  0.33474  1.0000
  C   C126      1.0  0.30450  0.14577  0.33484  1.0000
  C   C127      1.0  0.31597  0.13513  0.33486  1.0000
  C   C128      1.0  0.33791  0.14606  0.33488  1.0000
  C   C129      1.0  0.34906  0.16804  0.33488  1.0000
  C   C130      1.0  0.33792  0.17888  0.33487  1.0000
  C   C131      1.0  0.31598  0.16788  0.33485  1.0000
  C   C132      1.0  0.23888  0.08006  0.33476  1.0000
  C   C133      1.0  0.24957  0.06864  0.33476  1.0000
  C   C134      1.0  0.23871  0.04670  0.33474  1.0000
  C   C135      1.0  0.21673  0.03546  0.33472  1.0000
  C   C136      1.0  0.20584  0.04656  0.33473  1.0000
  C   C137      1.0  0.21677  0.06851  0.33474  1.0000
  C   C138      1.0  0.23887  0.14585  0.33473  1.0000
  C   C139      1.0  0.21676  0.13530  0.33472  1.0000
  C   C140      1.0  0.20582  0.14631  0.33470  1.0000
  C   C141      1.0  0.21672  0.16829  0.33470  1.0000
  C   C142      1.0  0.23869  0.17905  0.33471  1.0000
  C   C143      1.0  0.24956  0.16797  0.33472  1.0000
  H   H68       1.0  0.24697  0.03900  0.33474  1.0000
  H   H69       1.0  0.26551  0.07617  0.33476  1.0000
  H   H70       1.0  0.18988  0.03875  0.33472  1.0000
  H   H71       1.0  0.20826  0.07593  0.33474  1.0000
  H   H72       1.0  0.20825  0.11936  0.33472  1.0000
  H   H73       1.0  0.18986  0.13815  0.33470  1.0000
  H   H74       1.0  0.26550  0.17640  0.33473  1.0000
  H   H75       1.0  0.24694  0.19501  0.33471  1.0000
  H   H76       1.0  0.30851  0.17635  0.33484  1.0000
  H   H77       1.0  0.34569  0.19484  0.33488  1.0000
  H   H78       1.0  0.34567  0.13785  0.33488  1.0000
  H   H79       1.0  0.30849  0.11919  0.33485  1.0000
  C   C144      1.0  0.88610  0.13458  0.33477  1.0000
  N   N35       1.0  0.87499  0.14466  0.33480  1.0000
  C   C145      1.0  0.85379  0.13457  0.33481  1.0000
  N   N36       1.0  0.84370  0.11337  0.33478  1.0000
  C   C146      1.0  0.85379  0.10226  0.33476  1.0000
  N   N37       1.0  0.87500  0.11336  0.33474  1.0000
  C   C147      1.0  0.84267  0.14570  0.33484  1.0000
  C   C148      1.0  0.85331  0.16781  0.33486  1.0000
  C   C149      1.0  0.84238  0.17882  0.33488  1.0000
  C   C150      1.0  0.82040  0.16799  0.33489  1.0000
  C   C151      1.0  0.80956  0.14601  0.33488  1.0000
  C   C152      1.0  0.82056  0.13507  0.33485  1.0000
  C   C153      1.0  0.90838  0.14578  0.33476  1.0000
  C   C154      1.0  0.91980  0.16790  0.33475  1.0000
  C   C155      1.0  0.94174  0.17899  0.33474  1.0000
  C   C156      1.0  0.95298  0.16824  0.33472  1.0000
  C   C157      1.0  0.94188  0.14626  0.33473  1.0000
  C   C158      1.0  0.91993  0.13523  0.33474  1.0000
  C   C159      1.0  0.84259  0.07999  0.33473  1.0000
  C   C160      1.0  0.85314  0.06843  0.33472  1.0000
  C   C161      1.0  0.84213  0.04648  0.33470  1.0000
  C   C162      1.0  0.82015  0.03540  0.33470  1.0000
  C   C163      1.0  0.80939  0.04661  0.33471  1.0000
  C   C164      1.0  0.82047  0.06856  0.33472  1.0000
  H   H80       1.0  0.94944  0.19495  0.33474  1.0000
  H   H81       1.0  0.91228  0.17632  0.33476  1.0000
  H   H82       1.0  0.94969  0.13810  0.33472  1.0000
  H   H83       1.0  0.91251  0.11930  0.33475  1.0000
  H   H84       1.0  0.86908  0.07586  0.33472  1.0000
  H   H85       1.0  0.85029  0.03868  0.33470  1.0000
  H   H86       1.0  0.81205  0.07608  0.33474  1.0000
  H   H87       1.0  0.79343  0.03891  0.33471  1.0000
  H   H88       1.0  0.81209  0.11913  0.33484  1.0000
  H   H89       1.0  0.79360  0.13781  0.33488  1.0000
  H   H90       1.0  0.85058  0.19478  0.33488  1.0000
  H   H91       1.0  0.86925  0.17628  0.33484  1.0000
  C   C165      1.0  0.24978  0.53039  0.33488  1.0000
  N   N38       1.0  0.23961  0.50920  0.33489  1.0000
  C   C166      1.0  0.24985  0.49816  0.33490  1.0000
  N   N39       1.0  0.27113  0.50920  0.33488  1.0000
  C   C167      1.0  0.28215  0.53038  0.33486  1.0000
  N   N40       1.0  0.27089  0.54024  0.33486  1.0000
  C   C168      1.0  0.23872  0.47591  0.33490  1.0000
  C   C169      1.0  0.21661  0.46444  0.33491  1.0000
  C   C170      1.0  0.20560  0.44250  0.33491  1.0000
  C   C171      1.0  0.21644  0.43138  0.33491  1.0000
  C   C172      1.0  0.23841  0.44249  0.33491  1.0000
  C   C173      1.0  0.24935  0.46443  0.33490  1.0000
  C   C174      1.0  0.23950  0.54234  0.33484  1.0000
  C   C175      1.0  0.21746  0.53293  0.33481  1.0000
  C   C176      1.0  0.20767  0.54511  0.33474  1.0000
  C   C177      1.0  0.21975  0.56707  0.33473  1.0000
  C   C178      1.0  0.24168  0.57658  0.33476  1.0000
  C   C179      1.0  0.25133  0.56443  0.33482  1.0000
  C   C180      1.0  0.30438  0.54233  0.33483  1.0000
  C   C181      1.0  0.31466  0.56443  0.33484  1.0000
  C   C182      1.0  0.33646  0.57657  0.33478  1.0000
  C   C183      1.0  0.34885  0.56704  0.33472  1.0000
  C   C184      1.0  0.33898  0.54509  0.33468  1.0000
  C   C185      1.0  0.31701  0.53292  0.33475  1.0000
  H   H92       1.0  0.19174  0.53789  0.33470  1.0000
  H   H93       1.0  0.20825  0.51705  0.33481  1.0000
  H   H94       1.0  0.25086  0.59249  0.33472  1.0000
  H   H95       1.0  0.26727  0.57216  0.33484  1.0000
  H   H96       1.0  0.30644  0.57216  0.33488  1.0000
  H   H97       1.0  0.34319  0.59249  0.33476  1.0000
  H   H98       1.0  0.31033  0.51704  0.33472  1.0000
  H   H99       1.0  0.34768  0.53786  0.33460  1.0000
  H   H100      1.0  0.26529  0.47189  0.33490  1.0000
  H   H101      1.0  0.24661  0.43473  0.33491  1.0000
  H   H102      1.0  0.18963  0.43475  0.33491  1.0000
  H   H103      1.0  0.20814  0.47191  0.33490  1.0000
  C   C186      1.0  0.45806  0.70635  0.33484  1.0000
  N   N41       1.0  0.47925  0.71737  0.33487  1.0000
  C   C187      1.0  0.49028  0.73864  0.33486  1.0000
  N   N42       1.0  0.47925  0.74888  0.33482  1.0000
  C   C188      1.0  0.45807  0.73872  0.33480  1.0000
  N   N43       1.0  0.44822  0.71761  0.33481  1.0000
  C   C189      1.0  0.51254  0.74977  0.33488  1.0000
  C   C190      1.0  0.52401  0.73913  0.33490  1.0000
  C   C191      1.0  0.54595  0.75006  0.33491  1.0000
  C   C192      1.0  0.55707  0.77203  0.33491  1.0000
  C   C193      1.0  0.54595  0.78288  0.33490  1.0000
  C   C194      1.0  0.52402  0.77188  0.33488  1.0000
  C   C195      1.0  0.44611  0.68412  0.33483  1.0000
  C   C196      1.0  0.45551  0.67148  0.33480  1.0000
  C   C197      1.0  0.44332  0.64951  0.33473  1.0000
  C   C198      1.0  0.42137  0.63964  0.33472  1.0000
  C   C199      1.0  0.41186  0.65206  0.33473  1.0000
  C   C200      1.0  0.42402  0.67386  0.33481  1.0000
  C   C201      1.0  0.44612  0.74900  0.33477  1.0000
  C   C202      1.0  0.42402  0.73717  0.33478  1.0000
  C   C203      1.0  0.41187  0.74682  0.33479  1.0000
  C   C204      1.0  0.42139  0.76874  0.33476  1.0000
  C   C205      1.0  0.44334  0.78083  0.33474  1.0000
  C   C206      1.0  0.45552  0.77104  0.33474  1.0000
  H   H104      1.0  0.45054  0.64080  0.33467  1.0000
  H   H105      1.0  0.47139  0.67814  0.33479  1.0000
  H   H106      1.0  0.39595  0.64534  0.33468  1.0000
  H   H107      1.0  0.41629  0.68208  0.33481  1.0000
  H   H108      1.0  0.41629  0.72122  0.33480  1.0000
  H   H109      1.0  0.39595  0.73763  0.33482  1.0000
  H   H110      1.0  0.47140  0.78025  0.33474  1.0000
  H   H111      1.0  0.45056  0.79676  0.33475  1.0000
  H   H112      1.0  0.51655  0.78036  0.33488  1.0000
  H   H113      1.0  0.55372  0.79885  0.33490  1.0000
  H   H114      1.0  0.55371  0.74185  0.33492  1.0000
  H   H115      1.0  0.51654  0.72319  0.33490  1.0000
  C   C207      1.0  0.28206  0.73866  0.33485  1.0000
  N   N44       1.0  0.27104  0.74882  0.33488  1.0000
  C   C208      1.0  0.24976  0.73858  0.33489  1.0000
  N   N45       1.0  0.23953  0.71731  0.33488  1.0000
  C   C209      1.0  0.24969  0.70629  0.33485  1.0000
  N   N46       1.0  0.27081  0.71755  0.33484  1.0000
  C   C210      1.0  0.23864  0.74971  0.33491  1.0000
  C   C211      1.0  0.24929  0.77183  0.33491  1.0000
  C   C212      1.0  0.23835  0.78284  0.33492  1.0000
  C   C213      1.0  0.21639  0.77199  0.33492  1.0000
  C   C214      1.0  0.20553  0.75002  0.33491  1.0000
  C   C215      1.0  0.21653  0.73908  0.33491  1.0000
  C   C216      1.0  0.30429  0.74896  0.33480  1.0000
  C   C217      1.0  0.31691  0.77100  0.33484  1.0000
  C   C218      1.0  0.33889  0.78080  0.33476  1.0000
  C   C219      1.0  0.34877  0.76873  0.33464  1.0000
  C   C220      1.0  0.33637  0.74680  0.33462  1.0000
  C   C221      1.0  0.31457  0.73714  0.33470  1.0000
  C   C222      1.0  0.23941  0.68406  0.33482  1.0000
  C   C223      1.0  0.25124  0.67379  0.33480  1.0000
  C   C224      1.0  0.24158  0.65199  0.33472  1.0000
  C   C225      1.0  0.21966  0.63959  0.33468  1.0000
  C   C226      1.0  0.20757  0.64946  0.33468  1.0000
  C   C227      1.0  0.21737  0.67143  0.33476  1.0000
  H   H116      1.0  0.34758  0.79673  0.33478  1.0000
  H   H117      1.0  0.31024  0.78020  0.33490  1.0000
  H   H118      1.0  0.34310  0.73762  0.33454  1.0000
  H   H119      1.0  0.30636  0.72119  0.33468  1.0000
  H   H120      1.0  0.26718  0.68200  0.33482  1.0000
  H   H121      1.0  0.25076  0.64525  0.33468  1.0000
  H   H122      1.0  0.20817  0.67810  0.33476  1.0000
  H   H123      1.0  0.19164  0.64075  0.33462  1.0000
  H   H124      1.0  0.20805  0.72314  0.33490  1.0000
  H   H125      1.0  0.18957  0.74182  0.33491  1.0000
  H   H126      1.0  0.24656  0.79880  0.33492  1.0000
  H   H127      1.0  0.26522  0.78030  0.33491  1.0000
  C   C228      1.0  0.74352  0.45325  0.33482  1.0000
  N   N47       1.0  0.75369  0.47444  0.33486  1.0000
  C   C229      1.0  0.74344  0.48546  0.33486  1.0000
  N   N48       1.0  0.72217  0.47443  0.33483  1.0000
  C   C230      1.0  0.71115  0.45324  0.33480  1.0000
  N   N49       1.0  0.72241  0.44339  0.33479  1.0000
  C   C231      1.0  0.75457  0.50772  0.33488  1.0000
  C   C232      1.0  0.77668  0.51919  0.33490  1.0000
  C   C233      1.0  0.78769  0.54113  0.33492  1.0000
  C   C234      1.0  0.77684  0.55225  0.33492  1.0000
  C   C235      1.0  0.75487  0.54113  0.33490  1.0000
  C   C236      1.0  0.74393  0.51919  0.33489  1.0000
  C   C237      1.0  0.75381  0.44131  0.33479  1.0000
  C   C238      1.0  0.77585  0.45072  0.33482  1.0000
  C   C239      1.0  0.78565  0.43855  0.33475  1.0000
  C   C240      1.0  0.77358  0.41659  0.33463  1.0000
  C   C241      1.0  0.75165  0.40708  0.33458  1.0000
  C   C242      1.0  0.74199  0.41922  0.33469  1.0000
  C   C243      1.0  0.68892  0.44129  0.33477  1.0000
  C   C244      1.0  0.67866  0.41919  0.33478  1.0000
  C   C245      1.0  0.65686  0.40704  0.33479  1.0000
  C   C246      1.0  0.64446  0.41656  0.33476  1.0000
  C   C247      1.0  0.65431  0.43850  0.33474  1.0000
  C   C248      1.0  0.67628  0.45069  0.33474  1.0000
  H   H128      1.0  0.80158  0.44577  0.33475  1.0000
  H   H129      1.0  0.78506  0.46660  0.33489  1.0000
  H   H130      1.0  0.74247  0.39116  0.33449  1.0000
  H   H131      1.0  0.72605  0.41148  0.33465  1.0000
  H   H132      1.0  0.68688  0.41147  0.33481  1.0000
  H   H133      1.0  0.65013  0.39112  0.33482  1.0000
  H   H134      1.0  0.68295  0.46657  0.33474  1.0000
  H   H135      1.0  0.64560  0.44572  0.33475  1.0000
  H   H136      1.0  0.72799  0.51173  0.33488  1.0000
  H   H137      1.0  0.74667  0.54890  0.33490  1.0000
  H   H138      1.0  0.80365  0.54889  0.33492  1.0000
  H   H139      1.0  0.78515  0.51172  0.33490  1.0000
  C   C249      1.0  0.53520  0.27723  0.33485  1.0000
  N   N50       1.0  0.51401  0.26620  0.33488  1.0000
  C   C250      1.0  0.50298  0.24493  0.33489  1.0000
  N   N51       1.0  0.51402  0.23469  0.33488  1.0000
  C   C251      1.0  0.53521  0.24486  0.33486  1.0000
  N   N52       1.0  0.54506  0.26597  0.33484  1.0000
  C   C252      1.0  0.48073  0.23381  0.33490  1.0000
  C   C253      1.0  0.46926  0.24445  0.33491  1.0000
  C   C254      1.0  0.44732  0.23352  0.33491  1.0000
  C   C255      1.0  0.43620  0.21155  0.33492  1.0000
  C   C256      1.0  0.44731  0.20070  0.33491  1.0000
  C   C257      1.0  0.46925  0.21169  0.33491  1.0000
  C   C258      1.0  0.54714  0.29946  0.33480  1.0000
  C   C259      1.0  0.53772  0.31208  0.33483  1.0000
  C   C260      1.0  0.54989  0.33405  0.33476  1.0000
  C   C261      1.0  0.57184  0.34394  0.33464  1.0000
  C   C262      1.0  0.58137  0.33154  0.33462  1.0000
  C   C263      1.0  0.56923  0.30974  0.33470  1.0000
  C   C264      1.0  0.54716  0.23458  0.33483  1.0000
  C   C265      1.0  0.56925  0.24641  0.33484  1.0000
  C   C266      1.0  0.58140  0.23675  0.33478  1.0000
  C   C267      1.0  0.57187  0.21483  0.33472  1.0000
  C   C268      1.0  0.54992  0.20274  0.33468  1.0000
  C   C269      1.0  0.53775  0.21254  0.33475  1.0000
  H   H140      1.0  0.54266  0.34275  0.33478  1.0000
  H   H141      1.0  0.52184  0.30540  0.33490  1.0000
  H   H142      1.0  0.59728  0.33827  0.33454  1.0000
  H   H143      1.0  0.57697  0.30152  0.33468  1.0000
  H   H144      1.0  0.57698  0.26235  0.33488  1.0000
  H   H145      1.0  0.59732  0.24593  0.33476  1.0000
  H   H146      1.0  0.52187  0.20333  0.33472  1.0000
  H   H147      1.0  0.54270  0.18681  0.33460  1.0000
  H   H148      1.0  0.47671  0.20322  0.33491  1.0000
  H   H149      1.0  0.43955  0.18473  0.33491  1.0000
  H   H150      1.0  0.43957  0.24173  0.33491  1.0000
  H   H151      1.0  0.47673  0.26039  0.33490  1.0000
  C   C270      1.0  0.71118  0.24492  0.33484  1.0000
  N   N53       1.0  0.72220  0.23476  0.33486  1.0000
  C   C271      1.0  0.74348  0.24500  0.33486  1.0000
  N   N54       1.0  0.75372  0.26627  0.33483  1.0000
  C   C272      1.0  0.74355  0.27729  0.33480  1.0000
  N   N55       1.0  0.72244  0.26603  0.33482  1.0000
  C   C273      1.0  0.75460  0.23387  0.33488  1.0000
  C   C274      1.0  0.74396  0.21175  0.33490  1.0000
  C   C275      1.0  0.75489  0.20075  0.33491  1.0000
  C   C276      1.0  0.77686  0.21160  0.33491  1.0000
  C   C277      1.0  0.78772  0.23357  0.33490  1.0000
  C   C278      1.0  0.77672  0.24450  0.33488  1.0000
  C   C279      1.0  0.68895  0.23464  0.33483  1.0000
  C   C280      1.0  0.67631  0.21261  0.33480  1.0000
  C   C281      1.0  0.65434  0.20282  0.33473  1.0000
  C   C282      1.0  0.64447  0.21491  0.33472  1.0000
  C   C283      1.0  0.65689  0.23683  0.33473  1.0000
  C   C284      1.0  0.67869  0.24648  0.33481  1.0000
  C   C285      1.0  0.75383  0.29952  0.33478  1.0000
  C   C286      1.0  0.74200  0.30979  0.33483  1.0000
  C   C287      1.0  0.75165  0.33159  0.33485  1.0000
  C   C288      1.0  0.77357  0.34399  0.33479  1.0000
  C   C289      1.0  0.78566  0.33413  0.33474  1.0000
  C   C290      1.0  0.77587  0.31216  0.33474  1.0000
  H   H152      1.0  0.64563  0.18689  0.33467  1.0000
  H   H153      1.0  0.68298  0.20340  0.33479  1.0000
  H   H154      1.0  0.65017  0.24602  0.33468  1.0000
  H   H155      1.0  0.68691  0.26243  0.33481  1.0000
  H   H156      1.0  0.72606  0.30157  0.33487  1.0000
  H   H157      1.0  0.74246  0.33831  0.33490  1.0000
  H   H158      1.0  0.78508  0.30549  0.33471  1.0000
  H   H159      1.0  0.80159  0.34284  0.33472  1.0000
  H   H160      1.0  0.78519  0.26044  0.33488  1.0000
  H   H161      1.0  0.80368  0.24177  0.33490  1.0000
  H   H162      1.0  0.74669  0.18478  0.33492  1.0000
  H   H163      1.0  0.72802  0.20328  0.33490  1.0000
  C   C291      1.0  0.18957  0.37769  0.41531  1.0000
  N   N56       1.0  0.20016  0.39885  0.41324  1.0000
  C   C292      1.0  0.20550  0.40951  0.33490  1.0000
  H   H164      1.0  0.18587  0.37030  0.47579  1.0000
  C   C293      1.0  0.61076  0.79885  0.41532  1.0000
  N   N57       1.0  0.58960  0.78829  0.41324  1.0000
  C   C294      1.0  0.57893  0.78296  0.33491  1.0000
  H   H165      1.0  0.61815  0.80255  0.47579  1.0000
  C   C295      1.0  0.18958  0.79887  0.41531  1.0000
  N   N58       1.0  0.20014  0.78827  0.41324  1.0000
  C   C296      1.0  0.20546  0.78293  0.33491  1.0000
  H   H166      1.0  0.18589  0.80257  0.47579  1.0000
  C   C297      1.0  0.80371  0.60594  0.41532  1.0000
  N   N59       1.0  0.79312  0.58478  0.41324  1.0000
  C   C298      1.0  0.78777  0.57411  0.33491  1.0000
  H   H167      1.0  0.80741  0.61333  0.47579  1.0000
  C   C299      1.0  0.38251  0.18474  0.41531  1.0000
  N   N60       1.0  0.40367  0.19530  0.41324  1.0000
  C   C300      1.0  0.41434  0.20063  0.33491  1.0000
  H   H168      1.0  0.37512  0.18105  0.47579  1.0000
  C   C301      1.0  0.80368  0.18473  0.41531  1.0000
  N   N61       1.0  0.79312  0.19532  0.41324  1.0000
  C   C302      1.0  0.78779  0.20066  0.33491  1.0000
  H   H169      1.0  0.80738  0.18103  0.47579  1.0000
  N   N62       1.0  0.20048  0.18465  0.41299  1.0000
  C   C303      1.0  0.18991  0.19523  0.41509  1.0000
  C   C304      1.0  0.18415  0.20096  0.33472  1.0000
  H   H170      1.0  0.18620  0.19891  0.47558  1.0000
  N   N63       1.0  0.80379  0.00281  0.41299  1.0000
  C   C305      1.0  0.79320  0.98164  0.41509  1.0000
  C   C306      1.0  0.78748  0.97017  0.33472  1.0000
  H   H171      1.0  0.78953  0.97426  0.47558  1.0000
  N   N64       1.0  0.98563  0.78796  0.41299  1.0000
  N   N65       1.0  0.79278  0.79896  0.41299  1.0000
  C   C307      1.0  0.80336  0.78837  0.41509  1.0000
  C   C308      1.0  0.80912  0.78265  0.33472  1.0000
  H   H172      1.0  0.80707  0.78470  0.47558  1.0000
  N   N66       1.0  0.18948  0.98080  0.41299  1.0000
  C   C309      1.0  0.20007  0.00196  0.41509  1.0000
  C   C310      1.0  0.20579  0.01344  0.33472  1.0000
  H   H173      1.0  0.20374  0.00935  0.47558  1.0000
  C   C311      1.0  0.98648  0.18508  0.41509  1.0000
  C   C312      1.0  0.97500  0.17932  0.33472  1.0000
  H   H174      1.0  0.97909  0.18136  0.47558  1.0000
  N   N67       1.0  0.21143  0.60869  0.41242  1.0000
  C   C313      1.0  0.21059  0.58998  0.41493  1.0000
  C   C314      1.0  0.21097  0.58017  0.33460  1.0000
  H   H175      1.0  0.21274  0.58480  0.47508  1.0000
  N   N68       1.0  0.37975  0.58973  0.41243  1.0000
  C   C315      1.0  0.39846  0.60760  0.41492  1.0000
  C   C316      1.0  0.40826  0.61775  0.33450  1.0000
  H   H176      1.0  0.40365  0.61495  0.47505  1.0000
  N   N69       1.0  0.39868  0.77705  0.41253  1.0000
  C   C317      1.0  0.38084  0.77795  0.41493  1.0000
  C   C318      1.0  0.37066  0.77753  0.33454  1.0000
  H   H177      1.0  0.37352  0.77586  0.47508  1.0000
  N   N70       1.0  0.78187  0.37501  0.41254  1.0000
  C   C319      1.0  0.78277  0.39375  0.41492  1.0000
  C   C320      1.0  0.78237  0.40349  0.33444  1.0000
  H   H178      1.0  0.78067  0.39899  0.47504  1.0000
  N   N71       1.0  0.61344  0.39385  0.41253  1.0000
  C   C321      1.0  0.59469  0.37601  0.41493  1.0000
  C   C322      1.0  0.58493  0.36583  0.33454  1.0000
  H   H179      1.0  0.58946  0.36869  0.47508  1.0000
  N   N72       1.0  0.59456  0.20662  0.41243  1.0000
  C   C323      1.0  0.61244  0.20578  0.41492  1.0000
  C   C324      1.0  0.62258  0.20613  0.33450  1.0000
  H   H180      1.0  0.61979  0.20794  0.47505  1.0000
