data_image0
_chemical_formula_structural       C4NC2NC2H2C4NC2NC2H2C4NC2NC2H2C4NC2NC2H2C2H2C2H2C2H2C3H3C2H2C3H3C2H2C2H2C2H2C2H2C2H2C2H2C2H2C2H2C2H2C2H2C4NC2NC2H2C4NC2NC2H2C4NC2NC2H2C4NC2NC2H2C4NC2NC2H2C4NC2NC2H2C4NC2NC2H2C4NC2NC2H2C2H2C2H2C2H2C2H2C2H2C2H2C2H2C2H2C2H2C2H2C2H2C2H2C2H2C2H2C2H2C2H2C2H2C2H2C2H2C2H2CNCNCNCNCNCNCNCNCNCNCNCNCNCNCNCNCNCNCNCNCNCNCNCNCNCNCNCNCNCNCNCNCNCNCNCNCNCNCNCNCNCNCNCNCNCNCNCNCNCNCNCNCNCNCNCNCNCNCNCNC2H2C2H2C2H2C2H2C2H2C2H2C2H2C2H2C4NC2NC2H2C4NC2NCHC4NC2NCHC4NC2NC2H2C4NC2NC2H2C4NC2NC2H2C4NC2NC2H2C4NC2NC2H2C2H2C2H2C2H2C2H2C2H2C2H2C2H2C2H2C2H2C2H2C2H2C2H2C2H2C2H2C2H2C2H2C4NC2NC2H2C4NC2NC2H2C4NC2NC2H2C4NC2NC2H2C4NC2NC2H2C4NC2NC2H2C4NC2NC2H2C4NC2NC2H2C4NC2NC2H2C4NC2NC2H2
_chemical_formula_sum              "C420 N120 H180"
_cell_length_a       43.7705
_cell_length_b       43.7705
_cell_length_c       14.8555
_cell_angle_alpha    90
_cell_angle_beta     90
_cell_angle_gamma    90

_space_group_name_H-M_alt    "P 1"
_space_group_IT_number       1

loop_
  _space_group_symop_operation_xyz
  'x, y, z'

loop_
  _atom_site_type_symbol
  _atom_site_label
  _atom_site_symmetry_multiplicity
  _atom_site_fract_x
  _atom_site_fract_y
  _atom_site_fract_z
  _atom_site_occupancy
  C   C1        1.0  0.37726  0.05595  0.34035  1.0000
  C   C2        1.0  0.36225  0.04208  0.26639  1.0000
  C   C3        1.0  0.33097  0.03344  0.27329  1.0000
  C   C4        1.0  0.31448  0.03880  0.35362  1.0000
  N   N1        1.0  0.31698  0.02144  0.19943  1.0000
  C   C5        1.0  0.33122  0.01747  0.11930  1.0000
  C   C6        1.0  0.36215  0.02660  0.11182  1.0000
  N   N2        1.0  0.37635  0.03838  0.18538  1.0000
  C   C7        1.0  0.31572  0.00548  0.04404  1.0000
  C   C8        1.0  0.37714  0.02408  0.02847  1.0000
  H   H1        1.0  0.29331  0.99906  0.04907  1.0000
  H   H2        1.0  0.39897  0.03166  0.02200  1.0000
  C   C9        1.0  0.63489  0.95344  0.33934  1.0000
  C   C10       1.0  0.64824  0.96742  0.26296  1.0000
  C   C11       1.0  0.67971  0.97560  0.26357  1.0000
  C   C12       1.0  0.69774  0.97016  0.34105  1.0000
  N   N3        1.0  0.69204  0.98725  0.18668  1.0000
  C   C13       1.0  0.67583  0.99151  0.10980  1.0000
  C   C14       1.0  0.64446  0.98346  0.10931  1.0000
  N   N4        1.0  0.63207  0.97177  0.18565  1.0000
  C   C15       1.0  0.68963  0.00295  0.03107  1.0000
  C   C16       1.0  0.62710  0.98692  0.03012  1.0000
  H   H3        1.0  0.71232  0.00859  0.03078  1.0000
  H   H4        1.0  0.60451  0.98092  0.02912  1.0000
  C   C17       1.0  0.95372  0.37504  0.33929  1.0000
  C   C18       1.0  0.96780  0.36174  0.26298  1.0000
  C   C19       1.0  0.97621  0.33033  0.26379  1.0000
  C   C20       1.0  0.97101  0.31233  0.34146  1.0000
  N   N5        1.0  0.98793  0.31803  0.18695  1.0000
  C   C21       1.0  0.99202  0.33420  0.10994  1.0000
  C   C22       1.0  0.98374  0.36552  0.10925  1.0000
  N   N6        1.0  0.97198  0.37787  0.18555  1.0000
  C   C23       1.0  0.00356  0.32043  0.03128  1.0000
  C   C24       1.0  0.98704  0.38284  0.02993  1.0000
  H   H5        1.0  0.00937  0.29779  0.03113  1.0000
  H   H6        1.0  0.98089  0.40538  0.02880  1.0000
  C   C25       1.0  0.05626  0.63264  0.34042  1.0000
  C   C26       1.0  0.04247  0.64770  0.26641  1.0000
  C   C27       1.0  0.03409  0.67906  0.27317  1.0000
  C   C28       1.0  0.03966  0.69556  0.35337  1.0000
  N   N7        1.0  0.02217  0.69308  0.19926  1.0000
  C   C29       1.0  0.01803  0.67883  0.11924  1.0000
  C   C30       1.0  0.02690  0.64781  0.11194  1.0000
  N   N8        1.0  0.03860  0.63357  0.18552  1.0000
  C   C31       1.0  0.00616  0.69437  0.04392  1.0000
  C   C32       1.0  0.02419  0.63277  0.02871  1.0000
  H   H7        1.0  0.99993  0.71684  0.04883  1.0000
  H   H8        1.0  0.03156  0.61087  0.02236  1.0000
  C   C33       1.0  0.18439  0.55394  0.26372  1.0000
  C   C34       1.0  0.15327  0.56190  0.26336  1.0000
  H   H9        1.0  0.14431  0.57213  0.20724  1.0000
  H   H10       1.0  0.19735  0.55883  0.20813  1.0000
  C   C35       1.0  0.17106  0.50370  0.06126  1.0000
  C   C36       1.0  0.13985  0.51154  0.06085  1.0000
  H   H11       1.0  0.18097  0.49570  0.11897  1.0000
  H   H12       1.0  0.12717  0.50922  0.11827  1.0000
  C   C37       1.0  0.82861  0.45575  0.27012  1.0000
  C   C38       1.0  0.85954  0.44731  0.27588  1.0000
  H   H13       1.0  0.86946  0.43683  0.22157  1.0000
  H   H14       1.0  0.81677  0.45082  0.21245  1.0000
  C   C39       1.0  0.83150  0.50663  0.06797  1.0000
  C   C40       1.0  0.86197  0.49669  0.07589  1.0000
  C   C41       1.0  0.87722  0.48436  0.00081  1.0000
  H   H15       1.0  0.82038  0.51531  0.12285  1.0000
  H   H16       1.0  0.87295  0.49816  0.13648  1.0000
  H   H17       1.0  0.89887  0.47620  0.00795  1.0000
  C   C42       1.0  0.55457  0.82837  0.27047  1.0000
  C   C43       1.0  0.56281  0.85936  0.27609  1.0000
  H   H18       1.0  0.57324  0.86932  0.22175  1.0000
  H   H19       1.0  0.55954  0.81654  0.21282  1.0000
  C   C44       1.0  0.50359  0.83119  0.06825  1.0000
  C   C45       1.0  0.51333  0.86173  0.07604  1.0000
  C   C46       1.0  0.52557  0.87702  0.00090  1.0000
  H   H20       1.0  0.49500  0.82004  0.12319  1.0000
  H   H21       1.0  0.51178  0.87274  0.13658  1.0000
  H   H22       1.0  0.53355  0.89874  0.00792  1.0000
  C   C47       1.0  0.45638  0.18412  0.26347  1.0000
  C   C48       1.0  0.44821  0.15305  0.26327  1.0000
  H   H23       1.0  0.43793  0.14412  0.20718  1.0000
  H   H24       1.0  0.45155  0.19707  0.20784  1.0000
  C   C49       1.0  0.50645  0.17076  0.06115  1.0000
  C   C50       1.0  0.49842  0.13960  0.06089  1.0000
  H   H25       1.0  0.51452  0.18065  0.11880  1.0000
  H   H26       1.0  0.50066  0.12694  0.11837  1.0000
  C   C51       1.0  0.21859  0.10056  0.26089  1.0000
  C   C52       1.0  0.20625  0.13039  0.26136  1.0000
  H   H27       1.0  0.20991  0.14412  0.20661  1.0000
  H   H28       1.0  0.23125  0.09386  0.20636  1.0000
  C   C53       1.0  0.17279  0.07969  0.05783  1.0000
  C   C54       1.0  0.16129  0.10973  0.05961  1.0000
  H   H29       1.0  0.17266  0.06675  0.11512  1.0000
  H   H30       1.0  0.15283  0.11862  0.11818  1.0000
  C   C55       1.0  0.79384  0.90827  0.25597  1.0000
  C   C56       1.0  0.80593  0.87836  0.25802  1.0000
  H   H31       1.0  0.80236  0.86440  0.20372  1.0000
  H   H32       1.0  0.78144  0.91480  0.20077  1.0000
  C   C57       1.0  0.83896  0.93076  0.05321  1.0000
  C   C58       1.0  0.85070  0.90082  0.05578  1.0000
  H   H33       1.0  0.83905  0.94390  0.11012  1.0000
  H   H34       1.0  0.85930  0.89221  0.11455  1.0000
  C   C59       1.0  0.90914  0.21641  0.25535  1.0000
  C   C60       1.0  0.87918  0.20445  0.25740  1.0000
  H   H35       1.0  0.86524  0.20808  0.20308  1.0000
  H   H36       1.0  0.91572  0.22879  0.20016  1.0000
  C   C61       1.0  0.93155  0.17147  0.05262  1.0000
  C   C62       1.0  0.90150  0.16005  0.05551  1.0000
  H   H37       1.0  0.94473  0.17134  0.10946  1.0000
  H   H38       1.0  0.89284  0.15162  0.11443  1.0000
  C   C63       1.0  0.10140  0.79165  0.26177  1.0000
  C   C64       1.0  0.13118  0.80412  0.26216  1.0000
  H   H39       1.0  0.14492  0.80049  0.20741  1.0000
  H   H40       1.0  0.09473  0.77896  0.20728  1.0000
  C   C65       1.0  0.08058  0.83773  0.05863  1.0000
  C   C66       1.0  0.11050  0.84956  0.05999  1.0000
  H   H41       1.0  0.06769  0.83783  0.11604  1.0000
  H   H42       1.0  0.11934  0.85820  0.11837  1.0000
  C   C67       1.0  0.32153  0.64250  0.34903  1.0000
  C   C68       1.0  0.32428  0.62272  0.27384  1.0000
  C   C69       1.0  0.31226  0.59234  0.27623  1.0000
  C   C70       1.0  0.29734  0.58089  0.35388  1.0000
  N   N9        1.0  0.31360  0.57533  0.19965  1.0000
  C   C71       1.0  0.32579  0.58567  0.12152  1.0000
  C   C72       1.0  0.33743  0.61583  0.11886  1.0000
  N   N10       1.0  0.33616  0.63301  0.19478  1.0000
  C   C73       1.0  0.32626  0.56749  0.04347  1.0000
  C   C74       1.0  0.34910  0.62761  0.03781  1.0000
  H   H43       1.0  0.31765  0.54586  0.04528  1.0000
  H   H44       1.0  0.35658  0.64961  0.03517  1.0000
  C   C75       1.0  0.68999  0.36758  0.34819  1.0000
  C   C76       1.0  0.68730  0.38728  0.27278  1.0000
  C   C77       1.0  0.69940  0.41764  0.27485  1.0000
  C   C78       1.0  0.71445  0.42906  0.35228  1.0000
  N   N11       1.0  0.69806  0.43459  0.19818  1.0000
  C   C79       1.0  0.68582  0.42421  0.12018  1.0000
  C   C80       1.0  0.67418  0.39405  0.11773  1.0000
  N   N12       1.0  0.67541  0.37694  0.19379  1.0000
  C   C81       1.0  0.68536  0.44235  0.04203  1.0000
  C   C82       1.0  0.66256  0.38221  0.03670  1.0000
  H   H45       1.0  0.69397  0.46397  0.04373  1.0000
  H   H46       1.0  0.65520  0.36018  0.03412  1.0000
  C   C83       1.0  0.64272  0.68931  0.34778  1.0000
  C   C84       1.0  0.62302  0.68667  0.27235  1.0000
  C   C85       1.0  0.59272  0.69892  0.27432  1.0000
  C   C86       1.0  0.58131  0.71403  0.35169  1.0000
  N   N13       1.0  0.57579  0.69767  0.19760  1.0000
  C   C87       1.0  0.58614  0.68537  0.11964  1.0000
  C   C88       1.0  0.61623  0.67353  0.11734  1.0000
  N   N14       1.0  0.63332  0.67469  0.19344  1.0000
  C   C89       1.0  0.56804  0.68501  0.04141  1.0000
  C   C90       1.0  0.62803  0.66179  0.03640  1.0000
  H   H47       1.0  0.54648  0.69378  0.04297  1.0000
  H   H48       1.0  0.64999  0.65421  0.03398  1.0000
  C   C91       1.0  0.36780  0.32083  0.34941  1.0000
  C   C92       1.0  0.38757  0.32366  0.27421  1.0000
  C   C93       1.0  0.41802  0.31179  0.27666  1.0000
  C   C94       1.0  0.42949  0.29691  0.35436  1.0000
  N   N15       1.0  0.43504  0.31323  0.20013  1.0000
  C   C95       1.0  0.42466  0.32536  0.12198  1.0000
  C   C96       1.0  0.39443  0.33680  0.11922  1.0000
  N   N16       1.0  0.37723  0.33546  0.19511  1.0000
  C   C97       1.0  0.44288  0.32594  0.04400  1.0000
  C   C98       1.0  0.38260  0.34835  0.03809  1.0000
  H   H49       1.0  0.46456  0.31749  0.04592  1.0000
  H   H50       1.0  0.36054  0.35561  0.03532  1.0000
  C   C99       1.0  0.21657  0.90342  0.35398  1.0000
  C   C100      1.0  0.21087  0.92242  0.27839  1.0000
  C   C101      1.0  0.21760  0.95440  0.28041  1.0000
  C   C102      1.0  0.23036  0.96828  0.35796  1.0000
  N   N17       1.0  0.21347  0.97084  0.20359  1.0000
  C   C103      1.0  0.20342  0.95848  0.12537  1.0000
  C   C104      1.0  0.19719  0.92676  0.12302  1.0000
  N   N18       1.0  0.20110  0.91017  0.19926  1.0000
  C   C105      1.0  0.20019  0.97616  0.04684  1.0000
  C   C106      1.0  0.18820  0.91291  0.04187  1.0000
  H   H51       1.0  0.20520  0.99892  0.04812  1.0000
  H   H52       1.0  0.18506  0.88987  0.03945  1.0000
  C   C107      1.0  0.79395  0.10600  0.34973  1.0000
  C   C108      1.0  0.79999  0.08746  0.27341  1.0000
  C   C109      1.0  0.79390  0.05535  0.27424  1.0000
  C   C110      1.0  0.78142  0.04093  0.35129  1.0000
  N   N19       1.0  0.79843  0.03930  0.19690  1.0000
  C   C111      1.0  0.80826  0.05218  0.11916  1.0000
  C   C112      1.0  0.81373  0.08405  0.11789  1.0000
  N   N20       1.0  0.80947  0.10023  0.19471  1.0000
  C   C113      1.0  0.81199  0.03488  0.04009  1.0000
  C   C114      1.0  0.82235  0.09843  0.03723  1.0000
  H   H53       1.0  0.80762  0.01198  0.04062  1.0000
  H   H54       1.0  0.82482  0.12157  0.03552  1.0000
  C   C115      1.0  0.10683  0.21559  0.34986  1.0000
  C   C116      1.0  0.08822  0.20968  0.27356  1.0000
  C   C117      1.0  0.05614  0.21590  0.27454  1.0000
  C   C118      1.0  0.04180  0.22851  0.35151  1.0000
  N   N21       1.0  0.04000  0.21141  0.19735  1.0000
  C   C119      1.0  0.05278  0.20157  0.11951  1.0000
  C   C120      1.0  0.08465  0.19610  0.11795  1.0000
  N   N22       1.0  0.10091  0.20025  0.19468  1.0000
  C   C121      1.0  0.03538  0.19787  0.04062  1.0000
  C   C122      1.0  0.09893  0.18762  0.03703  1.0000
  H   H55       1.0  0.01249  0.20227  0.04141  1.0000
  H   H56       1.0  0.12207  0.18530  0.03503  1.0000
  C   C123      1.0  0.90426  0.79299  0.35379  1.0000
  C   C124      1.0  0.92321  0.79881  0.27819  1.0000
  C   C125      1.0  0.95521  0.79218  0.28005  1.0000
  C   C126      1.0  0.96913  0.77949  0.35764  1.0000
  N   N23       1.0  0.97158  0.79635  0.20310  1.0000
  C   C127      1.0  0.95913  0.80642  0.12497  1.0000
  C   C128      1.0  0.92740  0.81268  0.12291  1.0000
  N   N24       1.0  0.91090  0.80866  0.19923  1.0000
  C   C129      1.0  0.97671  0.80968  0.04627  1.0000
  C   C130      1.0  0.91347  0.82182  0.04201  1.0000
  H   H57       1.0  0.99948  0.80466  0.04730  1.0000
  H   H58       1.0  0.89044  0.82512  0.03986  1.0000
  C   C131      1.0  0.27384  0.44910  0.26538  1.0000
  C   C132      1.0  0.28013  0.41741  0.26729  1.0000
  H   H59       1.0  0.27479  0.40453  0.21195  1.0000
  H   H60       1.0  0.26373  0.45805  0.20909  1.0000
  C   C133      1.0  0.32020  0.46203  0.06439  1.0000
  C   C134      1.0  0.32553  0.43032  0.06729  1.0000
  H   H61       1.0  0.32262  0.47489  0.12141  1.0000
  H   H62       1.0  0.33185  0.42015  0.12638  1.0000
  C   C135      1.0  0.73720  0.56099  0.26336  1.0000
  C   C136      1.0  0.73053  0.59260  0.26542  1.0000
  H   H63       1.0  0.73577  0.60557  0.21018  1.0000
  H   H64       1.0  0.74742  0.55218  0.20705  1.0000
  C   C137      1.0  0.69117  0.54733  0.06245  1.0000
  C   C138      1.0  0.68524  0.57894  0.06533  1.0000
  H   H65       1.0  0.68896  0.53443  0.11946  1.0000
  H   H66       1.0  0.67872  0.58899  0.12440  1.0000
  C   C139      1.0  0.44948  0.73706  0.26360  1.0000
  C   C140      1.0  0.41785  0.73051  0.26565  1.0000
  H   H67       1.0  0.40490  0.73573  0.21035  1.0000
  H   H68       1.0  0.45834  0.74722  0.20726  1.0000
  C   C141      1.0  0.46287  0.69113  0.06291  1.0000
  C   C142      1.0  0.43124  0.68529  0.06571  1.0000
  H   H69       1.0  0.47574  0.68890  0.11997  1.0000
  H   H70       1.0  0.42115  0.67880  0.12476  1.0000
  C   C143      1.0  0.56135  0.27369  0.26513  1.0000
  C   C144      1.0  0.59302  0.28012  0.26705  1.0000
  H   H71       1.0  0.60592  0.27478  0.21175  1.0000
  H   H72       1.0  0.55244  0.26351  0.20889  1.0000
  C   C145      1.0  0.54815  0.32017  0.06394  1.0000
  C   C146      1.0  0.57984  0.32564  0.06690  1.0000
  H   H73       1.0  0.53526  0.32256  0.12092  1.0000
  H   H74       1.0  0.58997  0.33200  0.12601  1.0000
  C   C147      1.0  0.23301  0.25411  0.27093  1.0000
  C   C148      1.0  0.25574  0.27706  0.27088  1.0000
  H   H75       1.0  0.26949  0.27916  0.21546  1.0000
  H   H76       1.0  0.23102  0.24037  0.21546  1.0000
  C   C149      1.0  0.19524  0.29164  0.06567  1.0000
  C   C150      1.0  0.21792  0.31447  0.06571  1.0000
  H   H77       1.0  0.18332  0.28706  0.12332  1.0000
  H   H78       1.0  0.22242  0.32641  0.12338  1.0000
  C   C151      1.0  0.77793  0.75539  0.27139  1.0000
  C   C152      1.0  0.75506  0.73260  0.27094  1.0000
  H   H79       1.0  0.74137  0.73062  0.21535  1.0000
  H   H80       1.0  0.78009  0.76915  0.21601  1.0000
  C   C153      1.0  0.81481  0.71729  0.06639  1.0000
  C   C154      1.0  0.79197  0.69462  0.06601  1.0000
  H   H81       1.0  0.82667  0.72176  0.12422  1.0000
  H   H82       1.0  0.78731  0.68268  0.12356  1.0000
  C   C155      1.0  0.75595  0.23241  0.27091  1.0000
  C   C156      1.0  0.73314  0.25527  0.27079  1.0000
  H   H83       1.0  0.73113  0.26903  0.21535  1.0000
  H   H84       1.0  0.76968  0.23033  0.21545  1.0000
  C   C157      1.0  0.71813  0.19501  0.06571  1.0000
  C   C158      1.0  0.69545  0.21783  0.06565  1.0000
  H   H85       1.0  0.72264  0.18309  0.12341  1.0000
  H   H86       1.0  0.68354  0.22243  0.12331  1.0000
  C   C159      1.0  0.25467  0.77731  0.27141  1.0000
  C   C160      1.0  0.27761  0.75459  0.27100  1.0000
  H   H87       1.0  0.27968  0.74090  0.21544  1.0000
  H   H88       1.0  0.24090  0.77939  0.21602  1.0000
  C   C161      1.0  0.29250  0.81455  0.06635  1.0000
  C   C162      1.0  0.31532  0.79186  0.06605  1.0000
  H   H89       1.0  0.28796  0.82641  0.12414  1.0000
  H   H90       1.0  0.32729  0.78730  0.12361  1.0000
  C   C163      1.0  0.50338  0.02447  0.26596  1.0000
  C   C164      1.0  0.52603  0.00165  0.26849  1.0000
  H   H91       1.0  0.53935  0.99826  0.21270  1.0000
  H   H92       1.0  0.50085  0.03715  0.20852  1.0000
  C   C165      1.0  0.46892  0.99648  0.06919  1.0000
  C   C166      1.0  0.49089  0.97299  0.07135  1.0000
  H   H93       1.0  0.45739  0.00234  0.12651  1.0000
  H   H94       1.0  0.49527  0.96171  0.13021  1.0000
  C   C167      1.0  0.00182  0.48390  0.26843  1.0000
  C   C168      1.0  0.02465  0.50654  0.26594  1.0000
  H   H95       1.0  0.03736  0.50906  0.20856  1.0000
  H   H96       1.0  0.99845  0.47058  0.21262  1.0000
  C   C169      1.0  0.97309  0.51896  0.07129  1.0000
  C   C170      1.0  0.99661  0.54090  0.06923  1.0000
  H   H97       1.0  0.96178  0.51458  0.13011  1.0000
  H   H98       1.0  0.00244  0.55244  0.12655  1.0000
  C   C171      1.0  0.23278  0.05322  0.34023  1.0000
  N   N25       1.0  0.22153  0.02405  0.34654  1.0000
  C   C172      1.0  0.24055  0.99937  0.35746  1.0000
  N   N26       1.0  0.27118  0.00461  0.36121  1.0000
  C   C173      1.0  0.28278  0.03335  0.35751  1.0000
  N   N27       1.0  0.26345  0.05720  0.34615  1.0000
  C   C174      1.0  0.77956  0.95598  0.33262  1.0000
  N   N28       1.0  0.79068  0.98517  0.34052  1.0000
  C   C175      1.0  0.77144  0.00981  0.34878  1.0000
  N   N29       1.0  0.74079  0.00460  0.34825  1.0000
  C   C176      1.0  0.72936  0.97588  0.34154  1.0000
  N   N30       1.0  0.74884  0.95201  0.33410  1.0000
  C   C177      1.0  0.95688  0.23055  0.33209  1.0000
  N   N31       1.0  0.98605  0.21940  0.34022  1.0000
  C   C178      1.0  0.01070  0.23860  0.34902  1.0000
  N   N32       1.0  0.00551  0.26926  0.34881  1.0000
  C   C179      1.0  0.97679  0.28072  0.34193  1.0000
  N   N33       1.0  0.95293  0.26126  0.33389  1.0000
  C   C180      1.0  0.05413  0.77730  0.34129  1.0000
  N   N34       1.0  0.02493  0.78851  0.34700  1.0000
  C   C181      1.0  0.00026  0.76943  0.35718  1.0000
  N   N35       1.0  0.00552  0.73881  0.36069  1.0000
  C   C182      1.0  0.03428  0.72726  0.35728  1.0000
  N   N36       1.0  0.05814  0.74662  0.34671  1.0000
  C   C183      1.0  0.27943  0.55362  0.35068  1.0000
  N   N37       1.0  0.29054  0.52433  0.34627  1.0000
  C   C184      1.0  0.27131  0.49965  0.33890  1.0000
  N   N38       1.0  0.24068  0.50496  0.33674  1.0000
  C   C185      1.0  0.22925  0.53375  0.33985  1.0000
  N   N39       1.0  0.24874  0.55764  0.34673  1.0000
  C   C186      1.0  0.73228  0.45639  0.34868  1.0000
  N   N40       1.0  0.72106  0.48562  0.34376  1.0000
  C   C187      1.0  0.74019  0.51038  0.33657  1.0000
  N   N41       1.0  0.77086  0.50522  0.33530  1.0000
  C   C188      1.0  0.78243  0.47646  0.33833  1.0000
  N   N42       1.0  0.76301  0.45252  0.34558  1.0000
  C   C189      1.0  0.55404  0.73195  0.34824  1.0000
  N   N43       1.0  0.52479  0.72078  0.34360  1.0000
  C   C190      1.0  0.50005  0.73995  0.33686  1.0000
  N   N44       1.0  0.50525  0.77060  0.33577  1.0000
  C   C191      1.0  0.53402  0.78213  0.33866  1.0000
  N   N45       1.0  0.55796  0.76268  0.34546  1.0000
  C   C192      1.0  0.45681  0.27909  0.35085  1.0000
  N   N46       1.0  0.48608  0.29022  0.34639  1.0000
  C   C193      1.0  0.51078  0.27102  0.33873  1.0000
  N   N47       1.0  0.50549  0.24038  0.33637  1.0000
  C   C194      1.0  0.47670  0.22892  0.33958  1.0000
  N   N48       1.0  0.45282  0.24839  0.34677  1.0000
  C   C195      1.0  0.17942  0.17272  0.33763  1.0000
  N   N49       1.0  0.14909  0.17967  0.34370  1.0000
  C   C196      1.0  0.13892  0.20910  0.35005  1.0000
  N   N50       1.0  0.16023  0.23192  0.35107  1.0000
  C   C197      1.0  0.19080  0.22602  0.34401  1.0000
  N   N51       1.0  0.19981  0.19628  0.33695  1.0000
  C   C198      1.0  0.83213  0.83625  0.33685  1.0000
  N   N52       1.0  0.86235  0.82912  0.34461  1.0000
  C   C199      1.0  0.87223  0.79966  0.35269  1.0000
  N   N53       1.0  0.85076  0.77699  0.35366  1.0000
  C   C200      1.0  0.82027  0.78309  0.34499  1.0000
  N   N54       1.0  0.81154  0.81287  0.33622  1.0000
  C   C201      1.0  0.83698  0.17833  0.33602  1.0000
  N   N55       1.0  0.82990  0.14807  0.34259  1.0000
  C   C202      1.0  0.80046  0.13808  0.35002  1.0000
  N   N56       1.0  0.77774  0.15949  0.35147  1.0000
  C   C203      1.0  0.78377  0.19003  0.34397  1.0000
  N   N57       1.0  0.81354  0.19887  0.33581  1.0000
  C   C204      1.0  0.17344  0.83103  0.33852  1.0000
  N   N58       1.0  0.18046  0.86131  0.34582  1.0000
  C   C205      1.0  0.20991  0.87136  0.35281  1.0000
  N   N59       1.0  0.23267  0.85000  0.35330  1.0000
  C   C206      1.0  0.22670  0.81948  0.34505  1.0000
  N   N60       1.0  0.19695  0.81058  0.33739  1.0000
  C   C207      1.0  0.33165  0.67353  0.34673  1.0000
  N   N61       1.0  0.36198  0.68070  0.34473  1.0000
  C   C208      1.0  0.37195  0.71025  0.34226  1.0000
  N   N62       1.0  0.35053  0.73296  0.34214  1.0000
  C   C209      1.0  0.31995  0.72675  0.34378  1.0000
  N   N63       1.0  0.31105  0.69690  0.34626  1.0000
  C   C210      1.0  0.67963  0.33661  0.34643  1.0000
  N   N64       1.0  0.64924  0.32964  0.34516  1.0000
  C   C211      1.0  0.63907  0.30015  0.34333  1.0000
  N   N65       1.0  0.66035  0.27731  0.34298  1.0000
  C   C212      1.0  0.69098  0.28330  0.34393  1.0000
  N   N66       1.0  0.70008  0.31310  0.34583  1.0000
  C   C213      1.0  0.67370  0.67896  0.34592  1.0000
  N   N67       1.0  0.68072  0.64858  0.34410  1.0000
  C   C214      1.0  0.71024  0.63847  0.34204  1.0000
  N   N68       1.0  0.73304  0.65979  0.34210  1.0000
  C   C215      1.0  0.72698  0.69040  0.34358  1.0000
  N   N69       1.0  0.69717  0.69944  0.34565  1.0000
  C   C216      1.0  0.33677  0.33096  0.34724  1.0000
  N   N70       1.0  0.32966  0.36131  0.34578  1.0000
  C   C217      1.0  0.30013  0.37133  0.34354  1.0000
  N   N71       1.0  0.27738  0.34995  0.34304  1.0000
  C   C218      1.0  0.28353  0.31934  0.34417  1.0000
  N   N72       1.0  0.31337  0.31040  0.34646  1.0000
  C   C219      1.0  0.44601  0.10334  0.33635  1.0000
  N   N73       1.0  0.46813  0.08161  0.33639  1.0000
  C   C220      1.0  0.46069  0.05153  0.33567  1.0000
  N   N74       1.0  0.43073  0.04324  0.33662  1.0000
  C   C221      1.0  0.40828  0.06473  0.33631  1.0000
  N   N75       1.0  0.41616  0.09477  0.33688  1.0000
  C   C222      1.0  0.56545  0.90759  0.35652  1.0000
  N   N76       1.0  0.54387  0.92992  0.35484  1.0000
  C   C223      1.0  0.55199  0.95977  0.34584  1.0000
  N   N77       1.0  0.58199  0.96721  0.33894  1.0000
  C   C224      1.0  0.60382  0.94521  0.34150  1.0000
  N   N78       1.0  0.59538  0.91547  0.34950  1.0000
  C   C225      1.0  0.90775  0.44445  0.35641  1.0000
  N   N79       1.0  0.93008  0.46604  0.35472  1.0000
  C   C226      1.0  0.95994  0.45794  0.34571  1.0000
  N   N80       1.0  0.96738  0.42793  0.33885  1.0000
  C   C227      1.0  0.94540  0.40609  0.34140  1.0000
  N   N81       1.0  0.91565  0.41452  0.34941  1.0000
  C   C228      1.0  0.10354  0.56386  0.33627  1.0000
  N   N82       1.0  0.08181  0.54175  0.33639  1.0000
  C   C229      1.0  0.05173  0.54920  0.33576  1.0000
  N   N83       1.0  0.04345  0.57916  0.33672  1.0000
  C   C230      1.0  0.06495  0.60159  0.33637  1.0000
  N   N84       1.0  0.09498  0.59371  0.33684  1.0000
  C   C231      1.0  0.32926  0.05384  0.42551  1.0000
  C   C232      1.0  0.36028  0.06206  0.41924  1.0000
  H   H99       1.0  0.37038  0.07262  0.47308  1.0000
  H   H100      1.0  0.31752  0.05896  0.48321  1.0000
  C   C233      1.0  0.33108  0.00266  0.62782  1.0000
  C   C234      1.0  0.36174  0.01201  0.61998  1.0000
  H   H101      1.0  0.31983  0.99416  0.57293  1.0000
  H   H102      1.0  0.37275  0.01028  0.55950  1.0000
  C   C235      1.0  0.68437  0.95552  0.41600  1.0000
  C   C236      1.0  0.65333  0.94732  0.41524  1.0000
  H   H103      1.0  0.64425  0.93702  0.47109  1.0000
  H   H104      1.0  0.69715  0.95066  0.47197  1.0000
  C   C237      1.0  0.67222  0.00624  0.61863  1.0000
  C   C238      1.0  0.64104  0.99825  0.61815  1.0000
  H   H105      1.0  0.68226  0.01435  0.56125  1.0000
  H   H106      1.0  0.62853  0.00058  0.56043  1.0000
  C   C239      1.0  0.95625  0.32565  0.41630  1.0000
  C   C240      1.0  0.94778  0.35662  0.41533  1.0000
  H   H107      1.0  0.93743  0.36566  0.47116  1.0000
  H   H108      1.0  0.95147  0.31287  0.47233  1.0000
  C   C241      1.0  0.00670  0.33781  0.61871  1.0000
  C   C242      1.0  0.99847  0.36892  0.61804  1.0000
  H   H109      1.0  0.01488  0.32779  0.56139  1.0000
  H   H110      1.0  0.00070  0.38141  0.56024  1.0000
  C   C243      1.0  0.05456  0.68070  0.42536  1.0000
  C   C244      1.0  0.06252  0.64961  0.41922  1.0000
  H   H111      1.0  0.07303  0.63946  0.47308  1.0000
  H   H112      1.0  0.05976  0.69242  0.48302  1.0000
  C   C245      1.0  0.00320  0.67899  0.62779  1.0000
  C   C246      1.0  0.01226  0.64824  0.62013  1.0000
  H   H113      1.0  0.99476  0.69027  0.57286  1.0000
  H   H114      1.0  0.01041  0.63719  0.55972  1.0000
  C   C247      1.0  0.13462  0.55569  0.33867  1.0000
  C   C248      1.0  0.14782  0.54199  0.41577  1.0000
  C   C249      1.0  0.17934  0.53399  0.41617  1.0000
  C   C250      1.0  0.19760  0.53943  0.33918  1.0000
  N   N85       1.0  0.19148  0.52251  0.49353  1.0000
  C   C251      1.0  0.17507  0.51828  0.57004  1.0000
  C   C252      1.0  0.14366  0.52617  0.56961  1.0000
  N   N86       1.0  0.13145  0.53767  0.49275  1.0000
  C   C253      1.0  0.18870  0.50699  0.64923  1.0000
  C   C254      1.0  0.12609  0.52272  0.64841  1.0000
  H   H115      1.0  0.21141  0.50147  0.65016  1.0000
  H   H116      1.0  0.10346  0.52859  0.64874  1.0000
  C   C255      1.0  0.87670  0.45312  0.35465  1.0000
  C   C256      1.0  0.86199  0.46706  0.42901  1.0000
  C   C257      1.0  0.83078  0.47605  0.42243  1.0000
  C   C258      1.0  0.81409  0.47086  0.34230  1.0000
  N   N87       1.0  0.81705  0.48819  0.49646  1.0000
  C   C259      1.0  0.83144  0.49192  0.57646  1.0000
  C   C260      1.0  0.86225  0.48227  0.58388  1.0000
  N   N88       1.0  0.87622  0.47042  0.50999  1.0000
  C   C261      1.0  0.81612  0.50411  0.65172  1.0000
  H   H117      1.0  0.79383  0.51092  0.64667  1.0000
  C   C262      1.0  0.55687  0.87652  0.35478  1.0000
  C   C263      1.0  0.54303  0.86176  0.42921  1.0000
  C   C264      1.0  0.53426  0.83049  0.42278  1.0000
  C   C265      1.0  0.53957  0.81380  0.34273  1.0000
  N   N89       1.0  0.52219  0.81673  0.49685  1.0000
  C   C266      1.0  0.51835  0.83114  0.57678  1.0000
  C   C267      1.0  0.52779  0.86201  0.58405  1.0000
  N   N90       1.0  0.53956  0.87602  0.51011  1.0000
  C   C268      1.0  0.50624  0.81578  0.65209  1.0000
  H   H118      1.0  0.49960  0.79344  0.64715  1.0000
  C   C269      1.0  0.45426  0.13441  0.33872  1.0000
  C   C270      1.0  0.46805  0.14757  0.41574  1.0000
  C   C271      1.0  0.47626  0.17903  0.41597  1.0000
  C   C272      1.0  0.47096  0.19728  0.33887  1.0000
  N   N91       1.0  0.48780  0.19115  0.49329  1.0000
  C   C273      1.0  0.49192  0.17476  0.56989  1.0000
  C   C274      1.0  0.48383  0.14340  0.56962  1.0000
  N   N92       1.0  0.47226  0.13122  0.49281  1.0000
  C   C275      1.0  0.50328  0.18837  0.64903  1.0000
  C   C276      1.0  0.48716  0.12586  0.64851  1.0000
  H   H119      1.0  0.50895  0.21104  0.64984  1.0000
  H   H120      1.0  0.48114  0.10327  0.64896  1.0000
  C   C277      1.0  0.18982  0.14173  0.33625  1.0000
  C   C278      1.0  0.18698  0.12219  0.41206  1.0000
  C   C279      1.0  0.19931  0.09193  0.41111  1.0000
  C   C280      1.0  0.21481  0.08039  0.33465  1.0000
  N   N93       1.0  0.19787  0.07513  0.48810  1.0000
  C   C281      1.0  0.18539  0.08558  0.56564  1.0000
  C   C282      1.0  0.17358  0.11568  0.56708  1.0000
  N   N94       1.0  0.17485  0.13262  0.49065  1.0000
  C   C283      1.0  0.18495  0.06765  0.64424  1.0000
  C   C284      1.0  0.16181  0.12768  0.64765  1.0000
  H   H121      1.0  0.19372  0.04606  0.64332  1.0000
  H   H122      1.0  0.15432  0.14967  0.64940  1.0000
  C   C285      1.0  0.82203  0.86729  0.33382  1.0000
  C   C286      1.0  0.82493  0.88719  0.40878  1.0000
  C   C287      1.0  0.81271  0.91749  0.40655  1.0000
  C   C288      1.0  0.79744  0.92869  0.32920  1.0000
  N   N95       1.0  0.81401  0.93453  0.48311  1.0000
  C   C289      1.0  0.82642  0.92433  0.56113  1.0000
  C   C290      1.0  0.83836  0.89429  0.56354  1.0000
  N   N96       1.0  0.83707  0.87707  0.48770  1.0000
  C   C291      1.0  0.82675  0.94250  0.63927  1.0000
  C   C292      1.0  0.85032  0.88260  0.64434  1.0000
  H   H123      1.0  0.81788  0.96405  0.63778  1.0000
  H   H124      1.0  0.85815  0.86071  0.64662  1.0000
  C   C293      1.0  0.86803  0.18843  0.33324  1.0000
  C   C294      1.0  0.88790  0.18551  0.40825  1.0000
  C   C295      1.0  0.91827  0.19754  0.40588  1.0000
  C   C296      1.0  0.92959  0.21269  0.32850  1.0000
  N   N97       1.0  0.93535  0.19617  0.48235  1.0000
  C   C297      1.0  0.92510  0.18392  0.56049  1.0000
  C   C298      1.0  0.89496  0.17225  0.56315  1.0000
  N   N98       1.0  0.87771  0.17355  0.48735  1.0000
  C   C299      1.0  0.94333  0.18350  0.63850  1.0000
  C   C300      1.0  0.88323  0.16054  0.64419  1.0000
  H   H125      1.0  0.96496  0.19217  0.63677  1.0000
  H   H126      1.0  0.86126  0.15301  0.64672  1.0000
  C   C301      1.0  0.14245  0.82064  0.33695  1.0000
  C   C302      1.0  0.12290  0.82348  0.41274  1.0000
  C   C303      1.0  0.09271  0.81097  0.41202  1.0000
  C   C304      1.0  0.08127  0.79533  0.33563  1.0000
  N   N99       1.0  0.07598  0.81235  0.48915  1.0000
  C   C305      1.0  0.08640  0.82500  0.56650  1.0000
  C   C306      1.0  0.11639  0.83709  0.56759  1.0000
  N   N100      1.0  0.13328  0.83581  0.49110  1.0000
  C   C307      1.0  0.06856  0.82537  0.64528  1.0000
  C   C308      1.0  0.12837  0.84914  0.64787  1.0000
  H   H127      1.0  0.04704  0.81640  0.64468  1.0000
  H   H128      1.0  0.15027  0.85693  0.64927  1.0000
  C   C309      1.0  0.29378  0.60128  0.42723  1.0000
  C   C310      1.0  0.30573  0.63125  0.42516  1.0000
  H   H129      1.0  0.30224  0.64513  0.47969  1.0000
  H   H130      1.0  0.28154  0.59465  0.48264  1.0000
  C   C311      1.0  0.33829  0.57926  0.62939  1.0000
  C   C312      1.0  0.34966  0.60934  0.62652  1.0000
  H   H131      1.0  0.33848  0.56607  0.57258  1.0000
  H   H132      1.0  0.35809  0.61801  0.56762  1.0000
  C   C313      1.0  0.71793  0.40880  0.42591  1.0000
  C   C314      1.0  0.70583  0.37888  0.42421  1.0000
  H   H133      1.0  0.70923  0.36507  0.47895  1.0000
  H   H134      1.0  0.73017  0.41547  0.48127  1.0000
  C   C315      1.0  0.67334  0.43052  0.62800  1.0000
  C   C316      1.0  0.66200  0.40043  0.62529  1.0000
  H   H135      1.0  0.67315  0.44367  0.57111  1.0000
  H   H136      1.0  0.65360  0.39171  0.56643  1.0000
  C   C317      1.0  0.60161  0.71747  0.42528  1.0000
  C   C318      1.0  0.63148  0.70527  0.42365  1.0000
  H   H137      1.0  0.64531  0.70868  0.47834  1.0000
  H   H138      1.0  0.59499  0.72978  0.48058  1.0000
  C   C319      1.0  0.57983  0.67289  0.62746  1.0000
  C   C320      1.0  0.60984  0.66133  0.62491  1.0000
  H   H139      1.0  0.56672  0.67279  0.57050  1.0000
  H   H140      1.0  0.61853  0.65285  0.56611  1.0000
  C   C321      1.0  0.40914  0.29332  0.42776  1.0000
  C   C322      1.0  0.37913  0.30516  0.42565  1.0000
  H   H141      1.0  0.36528  0.30167  0.48025  1.0000
  H   H142      1.0  0.41583  0.28113  0.48321  1.0000
  C   C323      1.0  0.43106  0.33788  0.62985  1.0000
  C   C324      1.0  0.40090  0.34902  0.62684  1.0000
  H   H143      1.0  0.44427  0.33816  0.57310  1.0000
  H   H144      1.0  0.39219  0.35738  0.56791  1.0000
  C   C325      1.0  0.23758  0.94877  0.43107  1.0000
  C   C326      1.0  0.23067  0.91719  0.42944  1.0000
  H   H145      1.0  0.23605  0.90420  0.48452  1.0000
  H   H146      1.0  0.24805  0.95754  0.48701  1.0000
  C   C327      1.0  0.19059  0.96229  0.63277  1.0000
  C   C328      1.0  0.18466  0.93067  0.63023  1.0000
  H   H147      1.0  0.18840  0.97511  0.57558  1.0000
  H   H148      1.0  0.17818  0.92054  0.57124  1.0000
  C   C329      1.0  0.77381  0.05997  0.42511  1.0000
  C   C330      1.0  0.78015  0.09166  0.42473  1.0000
  H   H149      1.0  0.77458  0.10431  0.48033  1.0000
  H   H150      1.0  0.76343  0.05076  0.48061  1.0000
  C   C331      1.0  0.82130  0.04928  0.62655  1.0000
  C   C332      1.0  0.82638  0.08106  0.62504  1.0000
  H   H151      1.0  0.82390  0.03673  0.56900  1.0000
  H   H152      1.0  0.83264  0.09157  0.56642  1.0000
  C   C333      1.0  0.06089  0.23602  0.42532  1.0000
  C   C334      1.0  0.09255  0.22948  0.42486  1.0000
  H   H153      1.0  0.10525  0.23503  0.48039  1.0000
  H   H154      1.0  0.05175  0.24646  0.48080  1.0000
  C   C335      1.0  0.04969  0.18860  0.62689  1.0000
  C   C336      1.0  0.08147  0.18359  0.62501  1.0000
  H   H155      1.0  0.03708  0.18607  0.56943  1.0000
  H   H156      1.0  0.09193  0.17741  0.56623  1.0000
  C   C337      1.0  0.94969  0.77223  0.43086  1.0000
  C   C338      1.0  0.91809  0.77897  0.42928  1.0000
  H   H157      1.0  0.90514  0.77358  0.48442  1.0000
  H   H158      1.0  0.95853  0.76182  0.48683  1.0000
  C   C339      1.0  0.96277  0.81934  0.63239  1.0000
  C   C340      1.0  0.93116  0.82535  0.63022  1.0000
  H   H159      1.0  0.97553  0.82158  0.57511  1.0000
  H   H160      1.0  0.92098  0.83194  0.57139  1.0000
  C   C341      1.0  0.29359  0.40338  0.34335  1.0000
  C   C342      1.0  0.29945  0.42226  0.41903  1.0000
  C   C343      1.0  0.29335  0.45436  0.41667  1.0000
  C   C344      1.0  0.28118  0.46847  0.33868  1.0000
  N   N101      1.0  0.29766  0.47077  0.49343  1.0000
  C   C345      1.0  0.30733  0.45824  0.57182  1.0000
  C   C346      1.0  0.31296  0.42641  0.57451  1.0000
  N   N102      1.0  0.30886  0.40985  0.49831  1.0000
  C   C347      1.0  0.31082  0.47593  0.65018  1.0000
  C   C348      1.0  0.32161  0.41250  0.65592  1.0000
  H   H161      1.0  0.30615  0.49875  0.64857  1.0000
  H   H162      1.0  0.32425  0.38940  0.65881  1.0000
  C   C349      1.0  0.71686  0.60643  0.34148  1.0000
  C   C350      1.0  0.71123  0.58746  0.41708  1.0000
  C   C351      1.0  0.71776  0.55543  0.41463  1.0000
  C   C352      1.0  0.73010  0.54150  0.33656  1.0000
  N   N103      1.0  0.71375  0.53896  0.49140  1.0000
  C   C353      1.0  0.70391  0.55134  0.56984  1.0000
  C   C354      1.0  0.69775  0.58307  0.57255  1.0000
  N   N104      1.0  0.70162  0.59971  0.49637  1.0000
  C   C355      1.0  0.70078  0.53359  0.64822  1.0000
  C   C356      1.0  0.68882  0.59681  0.65393  1.0000
  H   H163      1.0  0.70586  0.51087  0.64660  1.0000
  H   H164      1.0  0.68572  0.61986  0.65679  1.0000
  C   C357      1.0  0.40397  0.71693  0.34177  1.0000
  C   C358      1.0  0.42290  0.71127  0.41744  1.0000
  C   C359      1.0  0.45494  0.71771  0.41505  1.0000
  C   C360      1.0  0.46891  0.72995  0.33692  1.0000
  N   N105      1.0  0.47139  0.71367  0.49187  1.0000
  C   C361      1.0  0.45895  0.70390  0.57031  1.0000
  C   C362      1.0  0.42720  0.69783  0.57295  1.0000
  N   N106      1.0  0.41060  0.70173  0.49672  1.0000
  C   C363      1.0  0.47666  0.70071  0.64874  1.0000
  C   C364      1.0  0.41340  0.68895  0.65429  1.0000
  H   H165      1.0  0.49939  0.70574  0.64721  1.0000
  H   H166      1.0  0.39034  0.68590  0.65707  1.0000
  C   C365      1.0  0.60699  0.29367  0.34305  1.0000
  C   C366      1.0  0.58808  0.29950  0.41868  1.0000
  C   C367      1.0  0.55600  0.29328  0.41630  1.0000
  C   C368      1.0  0.54195  0.28096  0.33840  1.0000
  N   N107      1.0  0.53956  0.29755  0.49302  1.0000
  C   C369      1.0  0.55203  0.30732  0.57138  1.0000
  C   C370      1.0  0.58384  0.31307  0.57412  1.0000
  N   N108      1.0  0.60044  0.30899  0.49796  1.0000
  C   C371      1.0  0.53430  0.31074  0.64969  1.0000
  C   C372      1.0  0.59768  0.32180  0.65554  1.0000
  H   H167      1.0  0.51151  0.30598  0.64802  1.0000
  H   H168      1.0  0.62077  0.32451  0.65848  1.0000
  C   C373      1.0  0.25963  0.29704  0.34486  1.0000
  C   C374      1.0  0.24050  0.29244  0.42075  1.0000
  C   C375      1.0  0.21745  0.26926  0.42070  1.0000
  C   C376      1.0  0.21301  0.25005  0.34487  1.0000
  N   N109      1.0  0.20123  0.26476  0.49777  1.0000
  C   C377      1.0  0.20577  0.28107  0.57429  1.0000
  C   C378      1.0  0.22860  0.30404  0.57432  1.0000
  N   N110      1.0  0.24489  0.30870  0.49782  1.0000
  C   C379      1.0  0.18906  0.27498  0.65331  1.0000
  C   C380      1.0  0.23456  0.32077  0.65338  1.0000
  H   H169      1.0  0.17277  0.25823  0.65397  1.0000
  H   H170      1.0  0.25121  0.33718  0.65410  1.0000
  C   C381      1.0  0.75096  0.71258  0.34475  1.0000
  C   C382      1.0  0.77001  0.71700  0.42089  1.0000
  C   C383      1.0  0.79322  0.74002  0.42124  1.0000
  C   C384      1.0  0.79787  0.75926  0.34557  1.0000
  N   N111      1.0  0.80935  0.74437  0.49856  1.0000
  C   C385      1.0  0.80459  0.72804  0.57493  1.0000
  C   C386      1.0  0.78161  0.70522  0.57454  1.0000
  N   N112      1.0  0.76540  0.70073  0.49782  1.0000
  C   C387      1.0  0.82121  0.73397  0.65422  1.0000
  C   C388      1.0  0.77541  0.68848  0.65343  1.0000
  H   H171      1.0  0.83763  0.75060  0.65516  1.0000
  H   H172      1.0  0.75865  0.67219  0.65385  1.0000
  C   C389      1.0  0.71316  0.25929  0.34472  1.0000
  C   C390      1.0  0.71764  0.24014  0.42064  1.0000
  C   C391      1.0  0.74068  0.21695  0.42066  1.0000
  C   C392      1.0  0.75987  0.21238  0.34485  1.0000
  N   N113      1.0  0.74507  0.20073  0.49780  1.0000
  C   C393      1.0  0.72879  0.20540  0.57429  1.0000
  C   C394      1.0  0.70595  0.22837  0.57424  1.0000
  N   N114      1.0  0.70140  0.24466  0.49769  1.0000
  C   C395      1.0  0.73476  0.18869  0.65339  1.0000
  C   C396      1.0  0.68925  0.23447  0.65327  1.0000
  H   H173      1.0  0.75142  0.17229  0.65411  1.0000
  H   H174      1.0  0.67295  0.25122  0.65391  1.0000
  C   C397      1.0  0.29763  0.75061  0.34486  1.0000
  C   C398      1.0  0.29309  0.76965  0.42098  1.0000
  C   C399      1.0  0.26993  0.79270  0.42128  1.0000
  C   C400      1.0  0.25067  0.79722  0.34560  1.0000
  N   N115      1.0  0.26548  0.80883  0.49855  1.0000
  C   C401      1.0  0.28183  0.80420  0.57492  1.0000
  C   C402      1.0  0.30479  0.78137  0.57461  1.0000
  N   N116      1.0  0.30940  0.76516  0.49792  1.0000
  C   C403      1.0  0.27579  0.82082  0.65415  1.0000
  C   C404      1.0  0.32157  0.77531  0.65353  1.0000
  H   H175      1.0  0.25905  0.83713  0.65504  1.0000
  H   H176      1.0  0.33797  0.75866  0.65400  1.0000
  C   C405      1.0  0.52964  0.98295  0.34527  1.0000
  C   C406      1.0  0.51168  0.98907  0.42233  1.0000
  C   C407      1.0  0.48899  0.01233  0.41994  1.0000
  C   C408      1.0  0.48388  0.02927  0.34028  1.0000
  N   N117      1.0  0.47374  0.01894  0.49734  1.0000
  C   C409      1.0  0.47898  0.00428  0.57622  1.0000
  C   C410      1.0  0.50123  0.98083  0.57845  1.0000
  N   N118      1.0  0.51670  0.97432  0.50169  1.0000
  C   C411      1.0  0.46349  0.01255  0.65539  1.0000
  C   C412      1.0  0.50748  0.96563  0.65982  1.0000
  H   H177      1.0  0.44883  0.03063  0.65474  1.0000
  H   H178      1.0  0.52435  0.94964  0.66256  1.0000
  C   C413      1.0  0.02945  0.52602  0.34032  1.0000
  C   C414      1.0  0.01249  0.52092  0.41994  1.0000
  C   C415      1.0  0.98922  0.49823  0.42226  1.0000
  C   C416      1.0  0.98311  0.48028  0.34517  1.0000
  N   N119      1.0  0.97445  0.49321  0.50158  1.0000
  C   C417      1.0  0.98095  0.50866  0.57837  1.0000
  C   C418      1.0  0.00442  0.53090  0.57622  1.0000
  N   N120      1.0  0.01909  0.53614  0.49738  1.0000
  C   C419      1.0  0.96574  0.50240  0.65971  1.0000
  C   C420      1.0  0.01268  0.54637  0.65544  1.0000
  H   H179      1.0  0.94972  0.48555  0.66237  1.0000
  H   H180      1.0  0.03077  0.56101  0.65485  1.0000
