data_image0
_chemical_formula_structural       CNCOC3HCH2C2NCOHC2H2OCO2HC2H2OCO2HC2H2OCO2HC2H2OCO2HC2H2O3HC2H2OCO2HC4NC2NOHCOC4NC2NOHCOC3NCOC4NC2NOHCOC4NC2NOHCOC2NCOHOC4NC2NOHCOC4NC2NOHCOC4NC2NOHCOC4NC2NOHCOC4NC2NOHCOC4NC2NOHCOCNCNCNC18H12CNCNCNC18H12CNCNCNC18H12CNCNCNC18H12CNCNCNC18H12CNCNCNC18H12CNCNCNC18H12CNCNCNC18H12CNCNCNC18H12CNCNCNC18H12CNCNCNC18H12CNCNCNC18H12C4NC2NHC4NC2NHC4NC2NHC4NC2NHC4NC2NHC5NC2NHC2H2OHC2H2OHCHOHC2H2OHC2H2OHCHC2H2OHC2H2OHC2H2OHC2H2OHC2H2OHC2H2OH
_chemical_formula_sum              "C414 N72 O54 H216"
_cell_length_a       74.4677
_cell_length_b       74.4677
_cell_length_c       14.9854
_cell_angle_alpha    90
_cell_angle_beta     90
_cell_angle_gamma    120

_space_group_name_H-M_alt    "P 1"
_space_group_IT_number       1

loop_
  _space_group_symop_operation_xyz
  'x, y, z'

loop_
  _atom_site_type_symbol
  _atom_site_label
  _atom_site_symmetry_multiplicity
  _atom_site_fract_x
  _atom_site_fract_y
  _atom_site_fract_z
  _atom_site_occupancy
  C   C1        1.0  0.00640  0.80075  0.23817  1.0000
  N   N1        1.0  0.01577  0.80727  0.15648  1.0000
  C   C2        1.0  0.00498  0.80392  0.07908  1.0000
  O   O1        1.0  0.01543  0.81041  0.00085  1.0000
  C   C3        1.0  0.00780  0.19340  0.24252  1.0000
  C   C4        1.0  0.00911  0.19016  0.08336  1.0000
  C   C5        1.0  0.00660  0.79568  0.39959  1.0000
  H   H1        1.0  0.01438  0.79775  0.45851  1.0000
  C   C6        1.0  0.00717  0.19829  0.40279  1.0000
  H   H2        1.0  0.01457  0.20369  0.46265  1.0000
  H   H3        1.0  0.01023  0.16757  0.62586  1.0000
  C   C7        1.0  0.01760  0.80382  0.31909  1.0000
  C   C8        1.0  0.01866  0.20121  0.32389  1.0000
  N   N2        1.0  0.01825  0.19667  0.16435  1.0000
  C   C9        1.0  0.02123  0.19453  0.00725  1.0000
  O   O2        1.0  0.02026  0.18070  0.62501  1.0000
  H   H4        1.0  0.03081  0.81436  0.15175  1.0000
  C   C10       1.0  0.19282  0.37597  0.27233  1.0000
  C   C11       1.0  0.20376  0.39774  0.27244  1.0000
  H   H5        1.0  0.20941  0.40537  0.21323  1.0000
  H   H6        1.0  0.19084  0.36839  0.21294  1.0000
  O   O3        1.0  0.17700  0.36587  0.00356  1.0000
  C   C12       1.0  0.19886  0.41030  0.00178  1.0000
  O   O4        1.0  0.21523  0.42671  0.00627  1.0000
  O   O5        1.0  0.18492  0.40917  0.05052  1.0000
  H   H7        1.0  0.17176  0.39922  0.04855  1.0000
  C   C13       1.0  0.61143  0.80299  0.27386  1.0000
  C   C14       1.0  0.58966  0.79213  0.27365  1.0000
  H   H8        1.0  0.58207  0.79017  0.21433  1.0000
  H   H9        1.0  0.61906  0.80864  0.21460  1.0000
  O   O6        1.0  0.62125  0.79721  0.00528  1.0000
  C   C15       1.0  0.57683  0.77461  0.00290  1.0000
  O   O7        1.0  0.56040  0.77455  0.00710  1.0000
  O   O8        1.0  0.57794  0.76181  0.05175  1.0000
  H   H10       1.0  0.58789  0.75860  0.04999  1.0000
  C   C16       1.0  0.18446  0.79461  0.27398  1.0000
  C   C17       1.0  0.19530  0.78369  0.27400  1.0000
  H   H11       1.0  0.19724  0.77801  0.21478  1.0000
  H   H12       1.0  0.17881  0.79656  0.21465  1.0000
  O   O9        1.0  0.19036  0.81055  0.00514  1.0000
  C   C18       1.0  0.21292  0.78868  0.00323  1.0000
  O   O10       1.0  0.21297  0.77232  0.00770  1.0000
  O   O11       1.0  0.22573  0.80263  0.05192  1.0000
  H   H13       1.0  0.22896  0.81579  0.04995  1.0000
  C   C19       1.0  0.79982  0.60674  0.27401  1.0000
  C   C20       1.0  0.78888  0.58497  0.27389  1.0000
  H   H14       1.0  0.78325  0.57737  0.21459  1.0000
  H   H15       1.0  0.80181  0.61435  0.21473  1.0000
  O   O12       1.0  0.81550  0.61661  0.00538  1.0000
  C   C21       1.0  0.79362  0.57222  0.00329  1.0000
  O   O13       1.0  0.77719  0.55584  0.00711  1.0000
  O   O14       1.0  0.80755  0.57314  0.05140  1.0000
  H   H16       1.0  0.82072  0.58306  0.04957  1.0000
  C   C22       1.0  0.38081  0.18014  0.26961  1.0000
  C   C23       1.0  0.40258  0.19100  0.27029  1.0000
  H   H17       1.0  0.41030  0.19300  0.21130  1.0000
  H   H18       1.0  0.37331  0.17454  0.21007  1.0000
  O   O15       1.0  0.37013  0.18565  0.00053  1.0000
  O   O16       1.0  0.43097  0.20823  0.00491  1.0000
  O   O17       1.0  0.41336  0.22096  0.04869  1.0000
  H   H19       1.0  0.40342  0.22419  0.04645  1.0000
  C   C24       1.0  0.80719  0.18767  0.27353  1.0000
  C   C25       1.0  0.79635  0.19860  0.27343  1.0000
  H   H20       1.0  0.79437  0.20422  0.21413  1.0000
  H   H21       1.0  0.81280  0.18566  0.21423  1.0000
  O   O18       1.0  0.80159  0.17217  0.00501  1.0000
  C   C26       1.0  0.77908  0.19404  0.00299  1.0000
  O   O19       1.0  0.77914  0.21047  0.00672  1.0000
  O   O20       1.0  0.76611  0.18014  0.05130  1.0000
  H   H22       1.0  0.76286  0.16697  0.04957  1.0000
  C   C27       1.0  0.20439  0.17690  0.32222  1.0000
  C   C28       1.0  0.20149  0.18492  0.24114  1.0000
  C   C29       1.0  0.19043  0.19595  0.23876  1.0000
  C   C30       1.0  0.18230  0.19900  0.31970  1.0000
  N   N3        1.0  0.18775  0.20265  0.15722  1.0000
  C   C31       1.0  0.19518  0.19929  0.07979  1.0000
  C   C32       1.0  0.20619  0.18844  0.08211  1.0000
  N   N4        1.0  0.20868  0.18171  0.16284  1.0000
  O   O21       1.0  0.19135  0.20593  0.00166  1.0000
  H   H23       1.0  0.17991  0.20986  0.15259  1.0000
  C   C33       1.0  0.21389  0.18405  0.00592  1.0000
  O   O22       1.0  0.21397  0.16769  0.00245  1.0000
  C   C34       1.0  0.80945  0.01436  0.32189  1.0000
  C   C35       1.0  0.80640  0.00342  0.24074  1.0000
  C   C36       1.0  0.79524  0.98133  0.23836  1.0000
  C   C37       1.0  0.78716  0.97015  0.31936  1.0000
  N   N5        1.0  0.79240  0.97194  0.15673  1.0000
  C   C38       1.0  0.79979  0.98272  0.07925  1.0000
  C   C39       1.0  0.81090  0.00458  0.08157  1.0000
  N   N6        1.0  0.81353  0.01380  0.16238  1.0000
  O   O23       1.0  0.79585  0.97225  0.00108  1.0000
  H   H24       1.0  0.78449  0.95690  0.15207  1.0000
  C   C40       1.0  0.81858  0.01663  0.00524  1.0000
  O   O24       1.0  0.81868  0.03308  0.00244  1.0000
  C   C41       1.0  0.97339  0.78202  0.32189  1.0000
  C   C42       1.0  0.98432  0.78989  0.24069  1.0000
  C   C43       1.0  0.98312  0.79323  0.08155  1.0000
  N   N7        1.0  0.97392  0.78666  0.16239  1.0000
  C   C44       1.0  0.97102  0.78887  0.00541  1.0000
  O   O25       1.0  0.95450  0.77259  0.00219  1.0000
  C   C45       1.0  0.78679  0.80493  0.32209  1.0000
  C   C46       1.0  0.79465  0.80186  0.24091  1.0000
  C   C47       1.0  0.80554  0.79066  0.23846  1.0000
  C   C48       1.0  0.80864  0.78257  0.31944  1.0000
  N   N8        1.0  0.81206  0.78780  0.15680  1.0000
  C   C49       1.0  0.80868  0.79520  0.07934  1.0000
  C   C50       1.0  0.79795  0.80634  0.08173  1.0000
  N   N9        1.0  0.79140  0.80899  0.16257  1.0000
  O   O26       1.0  0.81517  0.79123  0.00115  1.0000
  H   H25       1.0  0.81916  0.77986  0.15211  1.0000
  C   C51       1.0  0.79359  0.81403  0.00542  1.0000
  O   O27       1.0  0.77725  0.81416  0.00270  1.0000
  C   C52       1.0  0.18306  0.96839  0.32477  1.0000
  C   C53       1.0  0.18619  0.97953  0.24412  1.0000
  C   C54       1.0  0.19733  0.00161  0.24274  1.0000
  C   C55       1.0  0.20531  0.01260  0.32422  1.0000
  N   N10       1.0  0.20023  0.01120  0.16154  1.0000
  C   C56       1.0  0.19293  0.00061  0.08359  1.0000
  C   C57       1.0  0.18184  0.97874  0.08494  1.0000
  N   N11       1.0  0.17914  0.96933  0.16531  1.0000
  O   O28       1.0  0.19697  0.01127  0.00590  1.0000
  H   H26       1.0  0.20814  0.02625  0.15757  1.0000
  C   C58       1.0  0.17426  0.96685  0.00819  1.0000
  O   O29       1.0  0.17410  0.95038  0.00415  1.0000
  C   C59       1.0  0.98572  0.18254  0.23972  1.0000
  C   C60       1.0  0.97447  0.17941  0.32054  1.0000
  N   N12       1.0  0.97640  0.17606  0.15791  1.0000
  C   C61       1.0  0.98725  0.17946  0.08062  1.0000
  O   O30       1.0  0.97685  0.17301  0.00226  1.0000
  H   H27       1.0  0.96137  0.16898  0.15298  1.0000
  O   O31       1.0  0.03771  0.21086  0.00478  1.0000
  C   C62       1.0  0.21218  0.57935  0.32365  1.0000
  C   C63       1.0  0.20957  0.58771  0.24301  1.0000
  C   C64       1.0  0.20910  0.60657  0.24216  1.0000
  C   C65       1.0  0.21139  0.61720  0.32398  1.0000
  N   N13       1.0  0.20778  0.61432  0.16093  1.0000
  C   C66       1.0  0.20673  0.60469  0.08227  1.0000
  C   C67       1.0  0.20734  0.58606  0.08304  1.0000
  N   N14       1.0  0.20888  0.57859  0.16352  1.0000
  O   O32       1.0  0.20566  0.61344  0.00464  1.0000
  H   H28       1.0  0.20735  0.62716  0.15798  1.0000
  C   C68       1.0  0.20670  0.57555  0.00565  1.0000
  O   O33       1.0  0.21710  0.56704  0.00237  1.0000
  C   C69       1.0  0.40802  0.61906  0.32476  1.0000
  C   C70       1.0  0.39984  0.60832  0.24352  1.0000
  C   C71       1.0  0.38101  0.58896  0.24175  1.0000
  C   C72       1.0  0.37022  0.58040  0.32307  1.0000
  N   N15       1.0  0.37342  0.58007  0.16009  1.0000
  C   C73       1.0  0.38317  0.58885  0.08187  1.0000
  C   C74       1.0  0.40176  0.60812  0.08357  1.0000
  N   N16       1.0  0.40908  0.61696  0.16447  1.0000
  O   O34       1.0  0.37456  0.57918  0.00378  1.0000
  H   H29       1.0  0.36062  0.56678  0.15650  1.0000
  C   C75       1.0  0.41238  0.61819  0.00667  1.0000
  O   O35       1.0  0.42082  0.63710  0.00416  1.0000
  C   C76       1.0  0.36849  0.77546  0.32379  1.0000
  C   C77       1.0  0.37941  0.77809  0.24298  1.0000
  C   C78       1.0  0.39877  0.77861  0.24186  1.0000
  C   C79       1.0  0.40716  0.77631  0.32355  1.0000
  N   N17       1.0  0.40779  0.77995  0.16048  1.0000
  C   C80       1.0  0.39916  0.78100  0.08197  1.0000
  C   C81       1.0  0.37990  0.78034  0.08303  1.0000
  N   N18       1.0  0.37092  0.77877  0.16363  1.0000
  O   O36       1.0  0.40896  0.78211  0.00420  1.0000
  H   H30       1.0  0.42108  0.78043  0.15733  1.0000
  C   C82       1.0  0.36996  0.78096  0.00579  1.0000
  O   O37       1.0  0.35106  0.77053  0.00270  1.0000
  C   C83       1.0  0.78036  0.40341  0.32381  1.0000
  C   C84       1.0  0.78289  0.39511  0.24286  1.0000
  C   C85       1.0  0.78336  0.37625  0.24162  1.0000
  C   C86       1.0  0.78109  0.36555  0.32320  1.0000
  N   N19       1.0  0.78463  0.36856  0.16020  1.0000
  C   C87       1.0  0.78563  0.37823  0.08172  1.0000
  C   C88       1.0  0.78500  0.39685  0.08289  1.0000
  N   N20       1.0  0.78353  0.40429  0.16357  1.0000
  O   O38       1.0  0.78669  0.36954  0.00388  1.0000
  H   H31       1.0  0.78507  0.35572  0.15697  1.0000
  C   C89       1.0  0.78563  0.40740  0.00559  1.0000
  O   O39       1.0  0.77508  0.41576  0.00317  1.0000
  C   C90       1.0  0.58427  0.36383  0.32411  1.0000
  C   C91       1.0  0.59259  0.37471  0.24326  1.0000
  C   C92       1.0  0.61146  0.39402  0.24204  1.0000
  C   C93       1.0  0.62218  0.40245  0.32361  1.0000
  N   N21       1.0  0.61916  0.40299  0.16061  1.0000
  C   C94       1.0  0.60947  0.39435  0.08214  1.0000
  C   C95       1.0  0.59083  0.37512  0.08330  1.0000
  N   N22       1.0  0.58340  0.36619  0.16396  1.0000
  O   O40       1.0  0.61819  0.40409  0.00431  1.0000
  H   H32       1.0  0.63201  0.41625  0.15738  1.0000
  C   C96       1.0  0.58026  0.36517  0.00612  1.0000
  O   O41       1.0  0.57174  0.34626  0.00318  1.0000
  C   C97       1.0  0.62353  0.20742  0.32547  1.0000
  C   C98       1.0  0.61289  0.20488  0.24396  1.0000
  C   C99       1.0  0.59353  0.20434  0.24165  1.0000
  C   C100      1.0  0.58488  0.20658  0.32269  1.0000
  N   N23       1.0  0.58474  0.20304  0.15977  1.0000
  C   C101      1.0  0.59361  0.20209  0.08181  1.0000
  C   C102      1.0  0.61289  0.20279  0.08402  1.0000
  N   N24       1.0  0.62163  0.20429  0.16515  1.0000
  O   O42       1.0  0.58403  0.20103  0.00346  1.0000
  H   H33       1.0  0.57144  0.20255  0.15582  1.0000
  C   C103      1.0  0.62305  0.20225  0.00741  1.0000
  O   O43       1.0  0.64196  0.21271  0.00531  1.0000
  C   C104      1.0  0.13899  0.24408  0.33129  1.0000
  N   N25       1.0  0.14924  0.26516  0.33397  1.0000
  C   C105      1.0  0.13935  0.27634  0.33731  1.0000
  N   N26       1.0  0.11826  0.26550  0.33777  1.0000
  C   C106      1.0  0.10710  0.24444  0.33471  1.0000
  N   N27       1.0  0.11792  0.23419  0.33148  1.0000
  C   C107      1.0  0.15060  0.29845  0.34010  1.0000
  C   C108      1.0  0.17240  0.30975  0.32805  1.0000
  C   C109      1.0  0.18353  0.33155  0.33106  1.0000
  C   C110      1.0  0.17319  0.34276  0.34724  1.0000
  C   C111      1.0  0.15147  0.33173  0.35891  1.0000
  C   C112      1.0  0.14038  0.30993  0.35514  1.0000
  C   C113      1.0  0.14984  0.23282  0.32865  1.0000
  C   C114      1.0  0.17160  0.24307  0.31540  1.0000
  C   C115      1.0  0.18230  0.23196  0.31238  1.0000
  C   C116      1.0  0.17155  0.21022  0.32319  1.0000
  C   C117      1.0  0.14993  0.19984  0.33740  1.0000
  C   C118      1.0  0.13925  0.21097  0.33956  1.0000
  C   C119      1.0  0.08501  0.23357  0.33357  1.0000
  C   C120      1.0  0.07358  0.21248  0.30729  1.0000
  C   C121      1.0  0.05179  0.20186  0.30389  1.0000
  C   C122      1.0  0.04068  0.21191  0.32797  1.0000
  C   C123      1.0  0.05190  0.23282  0.35570  1.0000
  C   C124      1.0  0.07372  0.24351  0.35762  1.0000
  H   H34       1.0  0.19800  0.23986  0.30228  1.0000
  H   H35       1.0  0.17997  0.25879  0.30684  1.0000
  H   H36       1.0  0.14176  0.18408  0.34526  1.0000
  H   H37       1.0  0.12357  0.20283  0.34986  1.0000
  H   H38       1.0  0.08100  0.20463  0.28864  1.0000
  H   H39       1.0  0.04408  0.18666  0.28414  1.0000
  H   H40       1.0  0.08124  0.25868  0.37760  1.0000
  H   H41       1.0  0.04428  0.24055  0.37304  1.0000
  H   H42       1.0  0.12468  0.30256  0.36457  1.0000
  H   H43       1.0  0.14358  0.33949  0.37043  1.0000
  H   H44       1.0  0.19928  0.33918  0.32256  1.0000
  H   H45       1.0  0.18053  0.30224  0.31655  1.0000
  C   C125      1.0  0.74309  0.88174  0.33107  1.0000
  N   N28       1.0  0.72203  0.87076  0.33545  1.0000
  C   C126      1.0  0.71100  0.84969  0.33870  1.0000
  N   N29       1.0  0.72197  0.83958  0.33766  1.0000
  C   C127      1.0  0.74302  0.84962  0.33306  1.0000
  N   N30       1.0  0.75312  0.87069  0.32964  1.0000
  C   C128      1.0  0.68889  0.83871  0.34225  1.0000
  C   C129      1.0  0.67746  0.84911  0.33091  1.0000
  C   C130      1.0  0.65566  0.83829  0.33390  1.0000
  C   C131      1.0  0.64459  0.81671  0.34935  1.0000
  C   C132      1.0  0.65574  0.80614  0.36054  1.0000
  C   C133      1.0  0.67754  0.81698  0.35677  1.0000
  C   C134      1.0  0.75413  0.90385  0.32841  1.0000
  C   C135      1.0  0.74382  0.91531  0.34130  1.0000
  C   C136      1.0  0.75468  0.93712  0.33904  1.0000
  C   C137      1.0  0.77623  0.94817  0.32284  1.0000
  C   C138      1.0  0.78672  0.93698  0.31017  1.0000
  C   C139      1.0  0.77583  0.91517  0.31316  1.0000
  C   C140      1.0  0.75401  0.83853  0.33127  1.0000
  C   C141      1.0  0.77506  0.84828  0.30442  1.0000
  C   C142      1.0  0.78582  0.83724  0.30107  1.0000
  C   C143      1.0  0.77595  0.81612  0.32578  1.0000
  C   C144      1.0  0.75507  0.80634  0.35395  1.0000
  C   C145      1.0  0.74424  0.81732  0.35583  1.0000
  H   H46       1.0  0.74669  0.94486  0.34830  1.0000
  H   H47       1.0  0.72820  0.90793  0.35302  1.0000
  H   H48       1.0  0.80237  0.94463  0.29867  1.0000
  H   H49       1.0  0.78402  0.90768  0.30323  1.0000
  H   H50       1.0  0.78279  0.86352  0.28547  1.0000
  H   H51       1.0  0.80100  0.84480  0.28103  1.0000
  H   H52       1.0  0.72910  0.80960  0.37630  1.0000
  H   H53       1.0  0.74745  0.79101  0.37173  1.0000
  H   H54       1.0  0.68502  0.80873  0.36559  1.0000
  H   H55       1.0  0.64807  0.79048  0.37151  1.0000
  H   H56       1.0  0.64794  0.84633  0.32574  1.0000
  H   H57       1.0  0.68487  0.86474  0.31972  1.0000
  C   C146      1.0  0.10602  0.84792  0.33055  1.0000
  N   N31       1.0  0.11694  0.83779  0.33480  1.0000
  C   C147      1.0  0.13801  0.84776  0.33815  1.0000
  N   N32       1.0  0.14817  0.86884  0.33739  1.0000
  C   C148      1.0  0.13818  0.87991  0.33292  1.0000
  N   N33       1.0  0.11712  0.86900  0.32938  1.0000
  C   C149      1.0  0.14894  0.83659  0.34171  1.0000
  C   C150      1.0  0.13849  0.81476  0.33047  1.0000
  C   C151      1.0  0.14925  0.80372  0.33360  1.0000
  C   C152      1.0  0.17083  0.81418  0.34906  1.0000
  C   C153      1.0  0.18145  0.83591  0.36008  1.0000
  C   C154      1.0  0.17066  0.84692  0.35619  1.0000
  C   C155      1.0  0.08391  0.83691  0.32786  1.0000
  C   C156      1.0  0.07239  0.81514  0.34072  1.0000
  C   C157      1.0  0.05058  0.80425  0.33856  1.0000
  C   C158      1.0  0.03958  0.81481  0.32244  1.0000
  C   C159      1.0  0.05083  0.83649  0.30977  1.0000
  C   C160      1.0  0.07264  0.84735  0.31268  1.0000
  C   C161      1.0  0.14935  0.90200  0.33158  1.0000
  C   C162      1.0  0.13966  0.91339  0.30507  1.0000
  C   C163      1.0  0.15075  0.93519  0.30242  1.0000
  C   C164      1.0  0.17185  0.94635  0.32748  1.0000
  C   C165      1.0  0.18157  0.93517  0.35518  1.0000
  C   C166      1.0  0.17054  0.91335  0.35639  1.0000
  H   H58       1.0  0.04280  0.78852  0.34780  1.0000
  H   H59       1.0  0.07973  0.80686  0.35242  1.0000
  H   H60       1.0  0.04322  0.84452  0.29835  1.0000
  H   H61       1.0  0.08017  0.86303  0.30281  1.0000
  H   H62       1.0  0.12443  0.90594  0.28601  1.0000
  H   H63       1.0  0.14323  0.94288  0.28275  1.0000
  H   H64       1.0  0.17821  0.90587  0.37667  1.0000
  H   H65       1.0  0.19688  0.94282  0.37328  1.0000
  H   H66       1.0  0.17895  0.86264  0.36494  1.0000
  H   H67       1.0  0.19712  0.84387  0.37106  1.0000
  H   H68       1.0  0.14117  0.78795  0.32558  1.0000
  H   H69       1.0  0.12285  0.80656  0.31935  1.0000
  C   C167      1.0  0.85290  0.73842  0.33104  1.0000
  N   N34       1.0  0.84281  0.71736  0.33541  1.0000
  C   C168      1.0  0.85281  0.70631  0.33865  1.0000
  N   N35       1.0  0.87390  0.71726  0.33760  1.0000
  C   C169      1.0  0.88492  0.73831  0.33300  1.0000
  N   N36       1.0  0.87398  0.74844  0.32959  1.0000
  C   C170      1.0  0.84167  0.68420  0.34222  1.0000
  C   C171      1.0  0.81984  0.67280  0.33093  1.0000
  C   C172      1.0  0.80883  0.65099  0.33396  1.0000
  C   C173      1.0  0.81931  0.63990  0.34939  1.0000
  C   C174      1.0  0.84104  0.65103  0.36051  1.0000
  C   C175      1.0  0.85203  0.67283  0.35671  1.0000
  C   C176      1.0  0.84185  0.74948  0.32840  1.0000
  C   C177      1.0  0.82008  0.73919  0.34136  1.0000
  C   C178      1.0  0.80915  0.75007  0.33913  1.0000
  C   C179      1.0  0.81966  0.77162  0.32287  1.0000
  C   C180      1.0  0.84134  0.78209  0.31012  1.0000
  C   C181      1.0  0.85224  0.77118  0.31309  1.0000
  C   C182      1.0  0.90702  0.74929  0.33119  1.0000
  C   C183      1.0  0.91833  0.77035  0.30440  1.0000
  C   C184      1.0  0.94013  0.78109  0.30101  1.0000
  C   C185      1.0  0.95136  0.77120  0.32564  1.0000
  C   C186      1.0  0.94025  0.75031  0.35378  1.0000
  C   C187      1.0  0.91843  0.73950  0.35569  1.0000
  H   H70       1.0  0.79342  0.74210  0.34845  1.0000
  H   H71       1.0  0.81183  0.72357  0.35313  1.0000
  H   H72       1.0  0.84935  0.79773  0.29858  1.0000
  H   H73       1.0  0.86793  0.77936  0.30311  1.0000
  H   H74       1.0  0.91082  0.77808  0.28547  1.0000
  H   H75       1.0  0.94776  0.79627  0.28099  1.0000
  H   H76       1.0  0.91101  0.72436  0.37611  1.0000
  H   H77       1.0  0.94795  0.74268  0.37150  1.0000
  H   H78       1.0  0.86775  0.68029  0.36550  1.0000
  H   H79       1.0  0.84902  0.64334  0.37148  1.0000
  H   H80       1.0  0.79307  0.64329  0.32586  1.0000
  H   H81       1.0  0.81162  0.68022  0.31976  1.0000
  C   C188      1.0  0.24903  0.10100  0.33489  1.0000
  N   N37       1.0  0.27010  0.11207  0.33577  1.0000
  C   C189      1.0  0.28109  0.13315  0.33551  1.0000
  N   N38       1.0  0.27004  0.14319  0.33414  1.0000
  C   C190      1.0  0.24896  0.13304  0.33330  1.0000
  N   N39       1.0  0.23891  0.11197  0.33369  1.0000
  C   C191      1.0  0.30320  0.14424  0.33717  1.0000
  C   C192      1.0  0.31467  0.13385  0.32682  1.0000
  C   C193      1.0  0.33648  0.14472  0.32961  1.0000
  C   C194      1.0  0.34751  0.16635  0.34381  1.0000
  C   C195      1.0  0.33631  0.17691  0.35368  1.0000
  C   C196      1.0  0.31451  0.16602  0.35008  1.0000
  C   C197      1.0  0.23803  0.07888  0.33406  1.0000
  C   C198      1.0  0.24849  0.06753  0.34606  1.0000
  C   C199      1.0  0.23772  0.04571  0.34392  1.0000
  C   C200      1.0  0.21613  0.03456  0.32868  1.0000
  C   C201      1.0  0.20550  0.04565  0.31723  1.0000
  C   C202      1.0  0.21629  0.06746  0.32017  1.0000
  C   C203      1.0  0.23788  0.14404  0.33144  1.0000
  C   C204      1.0  0.21655  0.13415  0.35404  1.0000
  C   C205      1.0  0.20559  0.14500  0.35216  1.0000
  C   C206      1.0  0.21553  0.16602  0.32588  1.0000
  C   C207      1.0  0.23676  0.17600  0.30301  1.0000
  C   C208      1.0  0.24778  0.16522  0.30648  1.0000
  H   H82       1.0  0.24581  0.03805  0.35211  1.0000
  H   H83       1.0  0.26415  0.07499  0.35661  1.0000
  H   H84       1.0  0.18983  0.03793  0.30628  1.0000
  H   H85       1.0  0.20800  0.07487  0.31071  1.0000
  H   H86       1.0  0.20875  0.11892  0.37314  1.0000
  H   H87       1.0  0.19019  0.13732  0.36864  1.0000
  H   H88       1.0  0.26311  0.17302  0.28891  1.0000
  H   H89       1.0  0.24441  0.19127  0.28431  1.0000
  H   H90       1.0  0.30701  0.17426  0.35839  1.0000
  H   H91       1.0  0.34396  0.19261  0.36393  1.0000
  H   H92       1.0  0.34422  0.13668  0.32257  1.0000
  H   H93       1.0  0.30728  0.11816  0.31698  1.0000
  C   C209      1.0  0.88605  0.13490  0.33105  1.0000
  N   N40       1.0  0.87504  0.14494  0.33531  1.0000
  C   C210      1.0  0.85397  0.13488  0.33836  1.0000
  N   N41       1.0  0.84389  0.11380  0.33726  1.0000
  C   C211      1.0  0.85397  0.10282  0.33276  1.0000
  N   N42       1.0  0.87504  0.11382  0.32953  1.0000
  C   C212      1.0  0.84296  0.14597  0.34185  1.0000
  C   C213      1.0  0.85335  0.16780  0.33056  1.0000
  C   C214      1.0  0.84252  0.17878  0.33355  1.0000
  C   C215      1.0  0.82094  0.16825  0.34893  1.0000
  C   C216      1.0  0.81038  0.14652  0.36006  1.0000
  C   C217      1.0  0.82124  0.13558  0.35629  1.0000
  C   C218      1.0  0.90817  0.14601  0.32863  1.0000
  C   C219      1.0  0.91958  0.16778  0.34183  1.0000
  C   C220      1.0  0.94139  0.17877  0.33987  1.0000
  C   C221      1.0  0.95249  0.16832  0.32366  1.0000
  C   C222      1.0  0.94134  0.14665  0.31067  1.0000
  C   C223      1.0  0.91953  0.13569  0.31337  1.0000
  C   C224      1.0  0.84291  0.08073  0.33095  1.0000
  C   C225      1.0  0.85272  0.06947  0.30418  1.0000
  C   C226      1.0  0.84172  0.04767  0.30087  1.0000
  C   C227      1.0  0.82060  0.03639  0.32552  1.0000
  C   C228      1.0  0.81077  0.04745  0.35358  1.0000
  C   C229      1.0  0.82171  0.06927  0.35543  1.0000
  H   H94       1.0  0.94909  0.19449  0.34937  1.0000
  H   H95       1.0  0.91215  0.17598  0.35359  1.0000
  H   H96       1.0  0.94903  0.13869  0.29916  1.0000
  H   H97       1.0  0.91208  0.12001  0.30323  1.0000
  H   H98       1.0  0.86796  0.07702  0.28529  1.0000
  H   H99       1.0  0.84931  0.04008  0.28089  1.0000
  H   H100      1.0  0.81396  0.07665  0.37583  1.0000
  H   H101      1.0  0.79544  0.03971  0.37132  1.0000
  H   H102      1.0  0.81300  0.11986  0.36509  1.0000
  H   H103      1.0  0.79471  0.13852  0.37101  1.0000
  H   H104      1.0  0.85055  0.19454  0.32545  1.0000
  H   H105      1.0  0.86899  0.17605  0.31943  1.0000
  C   C230      1.0  0.24997  0.52915  0.33281  1.0000
  N   N43       1.0  0.23997  0.50814  0.33968  1.0000
  C   C231      1.0  0.25039  0.49739  0.34207  1.0000
  N   N44       1.0  0.27152  0.50843  0.33781  1.0000
  C   C232      1.0  0.28227  0.52945  0.33140  1.0000
  N   N45       1.0  0.27096  0.53912  0.32894  1.0000
  C   C233      1.0  0.23950  0.47532  0.34578  1.0000
  C   C234      1.0  0.21838  0.46402  0.37160  1.0000
  C   C235      1.0  0.20757  0.44221  0.37431  1.0000
  C   C236      1.0  0.21746  0.43097  0.34989  1.0000
  C   C237      1.0  0.23845  0.44207  0.32321  1.0000
  C   C238      1.0  0.24932  0.46388  0.32200  1.0000
  C   C239      1.0  0.23966  0.54088  0.32796  1.0000
  C   C240      1.0  0.21899  0.53296  0.35778  1.0000
  C   C241      1.0  0.20955  0.54535  0.35645  1.0000
  C   C242      1.0  0.22037  0.56576  0.32247  1.0000
  C   C243      1.0  0.24085  0.57362  0.29147  1.0000
  C   C244      1.0  0.25031  0.56142  0.29434  1.0000
  C   C245      1.0  0.30431  0.54147  0.32680  1.0000
  C   C246      1.0  0.31405  0.56256  0.30027  1.0000
  C   C247      1.0  0.33570  0.57498  0.29809  1.0000
  C   C248      1.0  0.34846  0.56679  0.32271  1.0000
  C   C249      1.0  0.33906  0.54582  0.34925  1.0000
  C   C250      1.0  0.31724  0.53328  0.35026  1.0000
  H   H106      1.0  0.19480  0.53942  0.38046  1.0000
  H   H107      1.0  0.21084  0.51832  0.38369  1.0000
  H   H108      1.0  0.24928  0.58851  0.26811  1.0000
  H   H109      1.0  0.26521  0.56790  0.27139  1.0000
  H   H110      1.0  0.30553  0.56930  0.28213  1.0000
  H   H111      1.0  0.34206  0.59021  0.27956  1.0000
  H   H112      1.0  0.31090  0.51821  0.37069  1.0000
  H   H113      1.0  0.34801  0.53960  0.36804  1.0000
  H   H114      1.0  0.26448  0.47129  0.30186  1.0000
  H   H115      1.0  0.24606  0.43435  0.30549  1.0000
  H   H116      1.0  0.19231  0.43459  0.39323  1.0000
  H   H117      1.0  0.21061  0.47154  0.38970  1.0000
  C   C251      1.0  0.45815  0.70709  0.33418  1.0000
  N   N46       1.0  0.47917  0.71806  0.34067  1.0000
  C   C252      1.0  0.48996  0.73923  0.34271  1.0000
  N   N47       1.0  0.47898  0.74938  0.33843  1.0000
  C   C253      1.0  0.45795  0.73914  0.33232  1.0000
  N   N48       1.0  0.44823  0.71815  0.33026  1.0000
  C   C254      1.0  0.51204  0.75037  0.34630  1.0000
  C   C255      1.0  0.52330  0.74050  0.37221  1.0000
  C   C256      1.0  0.54510  0.75147  0.37506  1.0000
  C   C257      1.0  0.55638  0.77260  0.35067  1.0000
  C   C258      1.0  0.54533  0.78252  0.32385  1.0000
  C   C259      1.0  0.52351  0.77162  0.32250  1.0000
  C   C260      1.0  0.44636  0.68504  0.32978  1.0000
  C   C261      1.0  0.45449  0.67229  0.35709  1.0000
  C   C262      1.0  0.44215  0.65046  0.35559  1.0000
  C   C263      1.0  0.42152  0.64086  0.32427  1.0000
  C   C264      1.0  0.41340  0.65346  0.29605  1.0000
  C   C265      1.0  0.42559  0.67512  0.29891  1.0000
  C   C266      1.0  0.44597  0.74921  0.32766  1.0000
  C   C267      1.0  0.42486  0.73787  0.30153  1.0000
  C   C268      1.0  0.41248  0.74713  0.29926  1.0000
  C   C269      1.0  0.42074  0.76812  0.32334  1.0000
  C   C270      1.0  0.44173  0.77968  0.34951  1.0000
  C   C271      1.0  0.45423  0.77037  0.35061  1.0000
  H   H118      1.0  0.44828  0.64164  0.37741  1.0000
  H   H119      1.0  0.46933  0.67878  0.38074  1.0000
  H   H120      1.0  0.39837  0.64697  0.27447  1.0000
  H   H121      1.0  0.41893  0.68351  0.27784  1.0000
  H   H122      1.0  0.41807  0.72258  0.28373  1.0000
  H   H123      1.0  0.39723  0.73827  0.28098  1.0000
  H   H124      1.0  0.46933  0.77909  0.37078  1.0000
  H   H125      1.0  0.44800  0.79488  0.36794  1.0000
  H   H126      1.0  0.51614  0.77939  0.30235  1.0000
  H   H127      1.0  0.55307  0.79786  0.30620  1.0000
  H   H128      1.0  0.55270  0.74381  0.39412  1.0000
  H   H129      1.0  0.51574  0.72521  0.39038  1.0000
  C   C272      1.0  0.28049  0.73750  0.33376  1.0000
  N   N49       1.0  0.26947  0.74748  0.34066  1.0000
  C   C273      1.0  0.24831  0.73705  0.34325  1.0000
  N   N50       1.0  0.23823  0.71591  0.33921  1.0000
  C   C274      1.0  0.24852  0.70518  0.33282  1.0000
  N   N51       1.0  0.26950  0.71651  0.33012  1.0000
  C   C275      1.0  0.23713  0.74794  0.34704  1.0000
  C   C276      1.0  0.24698  0.76907  0.37272  1.0000
  C   C277      1.0  0.23599  0.77989  0.37550  1.0000
  C   C278      1.0  0.21484  0.76999  0.35131  1.0000
  C   C279      1.0  0.20493  0.74899  0.32481  1.0000
  C   C280      1.0  0.21586  0.73811  0.32351  1.0000
  C   C281      1.0  0.30252  0.74784  0.32867  1.0000
  C   C282      1.0  0.31526  0.76852  0.35853  1.0000
  C   C283      1.0  0.33709  0.77800  0.35697  1.0000
  C   C284      1.0  0.34670  0.76723  0.32273  1.0000
  C   C285      1.0  0.33410  0.74674  0.29168  1.0000
  C   C286      1.0  0.31244  0.73725  0.29478  1.0000
  C   C287      1.0  0.23850  0.68313  0.32846  1.0000
  C   C288      1.0  0.24991  0.67337  0.30326  1.0000
  C   C289      1.0  0.24067  0.65172  0.30103  1.0000
  C   C290      1.0  0.21962  0.63898  0.32428  1.0000
  C   C291      1.0  0.20799  0.64839  0.34953  1.0000
  C   C292      1.0  0.21729  0.67021  0.35063  1.0000
  H   H130      1.0  0.34590  0.79275  0.38105  1.0000
  H   H131      1.0  0.30875  0.77664  0.38464  1.0000
  H   H132      1.0  0.34058  0.73835  0.26815  1.0000
  H   H133      1.0  0.30403  0.72235  0.27180  1.0000
  H   H134      1.0  0.26523  0.68187  0.28605  1.0000
  H   H135      1.0  0.24957  0.64534  0.28329  1.0000
  H   H136      1.0  0.20850  0.67656  0.37004  1.0000
  H   H137      1.0  0.19274  0.63945  0.36718  1.0000
  H   H138      1.0  0.20810  0.72295  0.30349  1.0000
  H   H139      1.0  0.18959  0.74138  0.30725  1.0000
  H   H140      1.0  0.24364  0.79515  0.39430  1.0000
  H   H141      1.0  0.26228  0.77685  0.39065  1.0000
  C   C293      1.0  0.74243  0.45350  0.33371  1.0000
  N   N52       1.0  0.75245  0.47451  0.34047  1.0000
  C   C294      1.0  0.74206  0.48528  0.34285  1.0000
  N   N53       1.0  0.72093  0.47427  0.33867  1.0000
  C   C295      1.0  0.71016  0.45325  0.33235  1.0000
  N   N54       1.0  0.72145  0.44355  0.32992  1.0000
  C   C296      1.0  0.75299  0.50736  0.34660  1.0000
  C   C297      1.0  0.77411  0.51861  0.37249  1.0000
  C   C298      1.0  0.78496  0.54041  0.37535  1.0000
  C   C299      1.0  0.77510  0.55170  0.35101  1.0000
  C   C300      1.0  0.75412  0.54065  0.32424  1.0000
  C   C301      1.0  0.74321  0.51883  0.32288  1.0000
  C   C302      1.0  0.75274  0.44176  0.32892  1.0000
  C   C303      1.0  0.77351  0.44979  0.35755  1.0000
  C   C304      1.0  0.78299  0.43745  0.35594  1.0000
  C   C305      1.0  0.77209  0.41695  0.32306  1.0000
  C   C306      1.0  0.75149  0.40895  0.29340  1.0000
  C   C307      1.0  0.74201  0.42113  0.29644  1.0000
  C   C308      1.0  0.68811  0.44124  0.32784  1.0000
  C   C309      1.0  0.67833  0.42010  0.30211  1.0000
  C   C310      1.0  0.65668  0.40771  0.29989  1.0000
  C   C311      1.0  0.64396  0.41600  0.32366  1.0000
  C   C312      1.0  0.65339  0.43702  0.34941  1.0000
  C   C313      1.0  0.67520  0.44952  0.35049  1.0000
  H   H142      1.0  0.79785  0.44348  0.37890  1.0000
  H   H143      1.0  0.78175  0.46453  0.38244  1.0000
  H   H144      1.0  0.74303  0.39400  0.27079  1.0000
  H   H145      1.0  0.72703  0.41456  0.27439  1.0000
  H   H146      1.0  0.68682  0.41330  0.28454  1.0000
  H   H147      1.0  0.65030  0.39246  0.28182  1.0000
  H   H148      1.0  0.68157  0.46464  0.37032  1.0000
  H   H149      1.0  0.64446  0.44331  0.36751  1.0000
  H   H150      1.0  0.72805  0.51145  0.30273  1.0000
  H   H151      1.0  0.74653  0.54839  0.30660  1.0000
  H   H152      1.0  0.80021  0.54800  0.39436  1.0000
  H   H153      1.0  0.78185  0.51105  0.39059  1.0000
  C   C314      1.0  0.53396  0.27583  0.33322  1.0000
  N   N55       1.0  0.51294  0.26488  0.33992  1.0000
  C   C315      1.0  0.50213  0.24372  0.34198  1.0000
  N   N56       1.0  0.51309  0.23355  0.33753  1.0000
  C   C316      1.0  0.53411  0.24377  0.33120  1.0000
  N   N57       1.0  0.54386  0.26476  0.32910  1.0000
  C   C317      1.0  0.48005  0.23259  0.34542  1.0000
  C   C318      1.0  0.46879  0.24246  0.37111  1.0000
  C   C319      1.0  0.44697  0.23153  0.37338  1.0000
  C   C320      1.0  0.43569  0.21041  0.34864  1.0000
  C   C321      1.0  0.44677  0.20048  0.32218  1.0000
  C   C322      1.0  0.46858  0.21135  0.32139  1.0000
  C   C323      1.0  0.54575  0.29788  0.32868  1.0000
  C   C324      1.0  0.53778  0.31066  0.35743  1.0000
  C   C325      1.0  0.55019  0.33249  0.35611  1.0000
  C   C326      1.0  0.57070  0.34205  0.32333  1.0000
  C   C327      1.0  0.57863  0.32941  0.29346  1.0000
  C   C328      1.0  0.56640  0.30775  0.29627  1.0000
  C   C329      1.0  0.54605  0.23367  0.32626  1.0000
  C   C330      1.0  0.56704  0.24489  0.29833  1.0000
  C   C331      1.0  0.57942  0.23561  0.29601  1.0000
  C   C332      1.0  0.57127  0.21474  0.32189  1.0000
  C   C333      1.0  0.55040  0.20331  0.34983  1.0000
  C   C334      1.0  0.53789  0.21262  0.35090  1.0000
  H   H154      1.0  0.54419  0.34133  0.37917  1.0000
  H   H155      1.0  0.52305  0.30419  0.38236  1.0000
  H   H156      1.0  0.59358  0.33586  0.27085  1.0000
  H   H157      1.0  0.57293  0.29932  0.27409  1.0000
  H   H158      1.0  0.57374  0.26009  0.27930  1.0000
  H   H159      1.0  0.59459  0.24440  0.27662  1.0000
  H   H160      1.0  0.52290  0.20400  0.37245  1.0000
  H   H161      1.0  0.54422  0.18822  0.36969  1.0000
  H   H162      1.0  0.47596  0.20357  0.30133  1.0000
  H   H163      1.0  0.43902  0.18516  0.30424  1.0000
  H   H164      1.0  0.43938  0.23919  0.39215  1.0000
  H   H165      1.0  0.47634  0.25775  0.38936  1.0000
  C   C335      1.0  0.71156  0.24535  0.33490  1.0000
  N   N58       1.0  0.72251  0.23528  0.34117  1.0000
  C   C336      1.0  0.74367  0.24559  0.34293  1.0000
  N   N59       1.0  0.75386  0.26673  0.33858  1.0000
  C   C337      1.0  0.74366  0.27756  0.33264  1.0000
  N   N60       1.0  0.72267  0.26633  0.33087  1.0000
  C   C338      1.0  0.75477  0.23462  0.34640  1.0000
  C   C339      1.0  0.74488  0.21350  0.37243  1.0000
  C   C340      1.0  0.75580  0.20262  0.37520  1.0000
  C   C341      1.0  0.77693  0.21243  0.35064  1.0000
  C   C342      1.0  0.78687  0.23341  0.32371  1.0000
  C   C343      1.0  0.77601  0.24435  0.32243  1.0000
  C   C344      1.0  0.68951  0.23512  0.33083  1.0000
  C   C345      1.0  0.67676  0.21413  0.35672  1.0000
  C   C346      1.0  0.65493  0.20463  0.35521  1.0000
  C   C347      1.0  0.64533  0.21578  0.32544  1.0000
  C   C348      1.0  0.65792  0.23661  0.29868  1.0000
  C   C349      1.0  0.67958  0.24608  0.30149  1.0000
  C   C350      1.0  0.75377  0.29961  0.32788  1.0000
  C   C351      1.0  0.74247  0.30943  0.30198  1.0000
  C   C352      1.0  0.75179  0.33108  0.29956  1.0000
  C   C353      1.0  0.77282  0.34376  0.32331  1.0000
  C   C354      1.0  0.78435  0.33429  0.34917  1.0000
  C   C355      1.0  0.77497  0.31246  0.35047  1.0000
  H   H166      1.0  0.64611  0.18958  0.37582  1.0000
  H   H167      1.0  0.68325  0.20569  0.37916  1.0000
  H   H168      1.0  0.65142  0.24521  0.27806  1.0000
  H   H169      1.0  0.68796  0.26121  0.28143  1.0000
  H   H170      1.0  0.72717  0.30097  0.28444  1.0000
  H   H171      1.0  0.74296  0.33750  0.28142  1.0000
  H   H172      1.0  0.78368  0.30606  0.37037  1.0000
  H   H173      1.0  0.79957  0.34318  0.36726  1.0000
  H   H174      1.0  0.78380  0.25950  0.30220  1.0000
  H   H175      1.0  0.80220  0.24096  0.30592  1.0000
  H   H176      1.0  0.74813  0.18738  0.39434  1.0000
  H   H177      1.0  0.72960  0.20580  0.39074  1.0000
  C   C356      1.0  0.20652  0.40893  0.35215  1.0000
  C   C357      1.0  0.19837  0.39775  0.43255  1.0000
  C   C358      1.0  0.18735  0.37566  0.43363  1.0000
  C   C359      1.0  0.18441  0.36472  0.35204  1.0000
  N   N61       1.0  0.18055  0.36602  0.51467  1.0000
  C   C360      1.0  0.18377  0.37657  0.59270  1.0000
  C   C361      1.0  0.19462  0.39844  0.59162  1.0000
  N   N62       1.0  0.20147  0.40790  0.51143  1.0000
  H   H178      1.0  0.17334  0.35097  0.51846  1.0000
  C   C362      1.0  0.57842  0.78368  0.35322  1.0000
  C   C363      1.0  0.58954  0.78671  0.43379  1.0000
  C   C364      1.0  0.61163  0.79780  0.43520  1.0000
  C   C365      1.0  0.62262  0.80583  0.35376  1.0000
  N   N63       1.0  0.62121  0.80062  0.51636  1.0000
  C   C366      1.0  0.61061  0.79328  0.59426  1.0000
  C   C367      1.0  0.58874  0.78224  0.59288  1.0000
  N   N64       1.0  0.57934  0.77963  0.51255  1.0000
  H   H179      1.0  0.63626  0.80849  0.52035  1.0000
  C   C368      1.0  0.20376  0.78094  0.35366  1.0000
  C   C369      1.0  0.20076  0.78912  0.43408  1.0000
  C   C370      1.0  0.18970  0.80014  0.43524  1.0000
  C   C371      1.0  0.18165  0.80304  0.35372  1.0000
  N   N65       1.0  0.18691  0.80697  0.51628  1.0000
  C   C372      1.0  0.19426  0.80376  0.59426  1.0000
  C   C373      1.0  0.20528  0.79291  0.59311  1.0000
  N   N66       1.0  0.20786  0.78604  0.51290  1.0000
  H   H180      1.0  0.17905  0.81417  0.52012  1.0000
  C   C374      1.0  0.78608  0.57373  0.35349  1.0000
  C   C375      1.0  0.79419  0.58487  0.43403  1.0000
  C   C376      1.0  0.80522  0.60696  0.43536  1.0000
  C   C377      1.0  0.80819  0.61793  0.35387  1.0000
  N   N67       1.0  0.81200  0.61654  0.51648  1.0000
  C   C378      1.0  0.80874  0.60595  0.59442  1.0000
  C   C379      1.0  0.79786  0.58408  0.59312  1.0000
  N   N68       1.0  0.79106  0.57467  0.51282  1.0000
  H   H181      1.0  0.81922  0.63160  0.52041  1.0000
  C   C380      1.0  0.41366  0.19938  0.35030  1.0000
  C   C381      1.0  0.40236  0.19629  0.43040  1.0000
  C   C382      1.0  0.38027  0.18521  0.43090  1.0000
  C   C383      1.0  0.36946  0.17725  0.34903  1.0000
  N   N69       1.0  0.37052  0.18234  0.51166  1.0000
  C   C384      1.0  0.38095  0.18962  0.58997  1.0000
  C   C385      1.0  0.40282  0.20063  0.58948  1.0000
  N   N70       1.0  0.41240  0.20330  0.50955  1.0000
  H   H182      1.0  0.35546  0.17451  0.51501  1.0000
  C   C386      1.0  0.41456  0.20819  0.66663  1.0000
  C   C387      1.0  0.78796  0.20144  0.35308  1.0000
  C   C388      1.0  0.79102  0.19335  0.43363  1.0000
  C   C389      1.0  0.80209  0.18233  0.43494  1.0000
  C   C390      1.0  0.81006  0.17933  0.35341  1.0000
  N   N71       1.0  0.80494  0.17559  0.51607  1.0000
  C   C391      1.0  0.79766  0.17889  0.59404  1.0000
  C   C392      1.0  0.78665  0.18976  0.59278  1.0000
  N   N72       1.0  0.78400  0.19652  0.51246  1.0000
  H   H183      1.0  0.81277  0.16837  0.51998  1.0000
  C   C393      1.0  0.18499  0.19070  0.40006  1.0000
  C   C394      1.0  0.19583  0.17977  0.40126  1.0000
  H   H184      1.0  0.19770  0.17420  0.46090  1.0000
  H   H185      1.0  0.17928  0.19277  0.45897  1.0000
  O   O44       1.0  0.22665  0.19787  0.62326  1.0000
  H   H186      1.0  0.22985  0.21103  0.62451  1.0000
  C   C395      1.0  0.79002  0.98116  0.39980  1.0000
  C   C396      1.0  0.80094  0.00293  0.40099  1.0000
  H   H187      1.0  0.80292  0.01038  0.46070  1.0000
  H   H188      1.0  0.78434  0.97340  0.45877  1.0000
  O   O45       1.0  0.83147  0.01567  0.62311  1.0000
  H   H189      1.0  0.83461  0.00567  0.62417  1.0000
  C   C397      1.0  0.98484  0.78490  0.40091  1.0000
  H   H190      1.0  0.97740  0.77945  0.46066  1.0000
  O   O46       1.0  0.97217  0.80272  0.62266  1.0000
  H   H191      1.0  0.98220  0.81585  0.62371  1.0000
  C   C398      1.0  0.80051  0.78545  0.39992  1.0000
  C   C399      1.0  0.78970  0.79641  0.40117  1.0000
  H   H192      1.0  0.78425  0.79840  0.46090  1.0000
  H   H193      1.0  0.80259  0.77976  0.45887  1.0000
  O   O47       1.0  0.80744  0.82690  0.62323  1.0000
  H   H194      1.0  0.82057  0.83002  0.62423  1.0000
  C   C400      1.0  0.20241  0.00140  0.40415  1.0000
  C   C401      1.0  0.19149  0.97964  0.40436  1.0000
  H   H195      1.0  0.18947  0.97205  0.46372  1.0000
  H   H196      1.0  0.20801  0.00903  0.46345  1.0000
  O   O48       1.0  0.16160  0.96808  0.62543  1.0000
  H   H197      1.0  0.15846  0.97807  0.62696  1.0000
  C   C402      1.0  0.98540  0.18750  0.40119  1.0000
  H   H198      1.0  0.97759  0.18538  0.46003  1.0000
  C   C403      1.0  0.21255  0.60807  0.40489  1.0000
  C   C404      1.0  0.21295  0.58940  0.40465  1.0000
  H   H199      1.0  0.21639  0.58464  0.46307  1.0000
  H   H200      1.0  0.21574  0.61616  0.46356  1.0000
  O   O49       1.0  0.19131  0.56788  0.62305  1.0000
  H   H201      1.0  0.18136  0.57110  0.62351  1.0000
  C   C405      1.0  0.37920  0.59055  0.40445  1.0000
  C   C406      1.0  0.39787  0.60962  0.40529  1.0000
  H   H202      1.0  0.40252  0.61768  0.46405  1.0000
  H   H203      1.0  0.37101  0.58544  0.46284  1.0000
  O   O50       1.0  0.42019  0.61063  0.62393  1.0000
  H   H204      1.0  0.41701  0.59747  0.62389  1.0000
  C   C407      1.0  0.39694  0.77520  0.40457  1.0000
  C   C408      1.0  0.37783  0.77473  0.40461  1.0000
  H   H205      1.0  0.36970  0.77138  0.46317  1.0000
  H   H206      1.0  0.40192  0.77208  0.46321  1.0000
  O   O51       1.0  0.37763  0.79636  0.62321  1.0000
  H   H207      1.0  0.39080  0.80633  0.62357  1.0000
  C   C409      1.0  0.77993  0.37462  0.40429  1.0000
  C   C410      1.0  0.77964  0.39336  0.40466  1.0000
  H   H208      1.0  0.77622  0.39809  0.46319  1.0000
  H   H209      1.0  0.77685  0.36653  0.46292  1.0000
  O   O52       1.0  0.80110  0.41533  0.62356  1.0000
  H   H210      1.0  0.81109  0.41216  0.62379  1.0000
  C   C411      1.0  0.61306  0.39224  0.40470  1.0000
  C   C412      1.0  0.59437  0.37318  0.40489  1.0000
  H   H211      1.0  0.58964  0.36505  0.46348  1.0000
  H   H212      1.0  0.62119  0.39719  0.46327  1.0000
  O   O53       1.0  0.57256  0.37286  0.62346  1.0000
  H   H213      1.0  0.57581  0.38604  0.62370  1.0000
  C   C413      1.0  0.59493  0.20774  0.40436  1.0000
  C   C414      1.0  0.61400  0.20814  0.40572  1.0000
  H   H214      1.0  0.62199  0.21155  0.46466  1.0000
  H   H215      1.0  0.58976  0.21082  0.46256  1.0000
  O   O54       1.0  0.61554  0.18690  0.62453  1.0000
  H   H216      1.0  0.60238  0.17693  0.62423  1.0000
