data_image0
_chemical_formula_structural       NCHNCHNCHNCHC2NC2ONH2C2NC2ONH2C2NC2ONH2C2NC2ONH2C2NC2ONH2C2NC2ONH2C2NC2ONH2C2NC2ONH2NCHNCHNCHNCHC2NC2ONH2C2NC2ONH2C2NC2ONH2C2NC2ONH2NCHNCHNCHNCHC2NC2ONH2C2NC2ONH2NCHNCHNCHNCHC2NC2ONH2C2NC2ONH2C2NC2ONH2C2NC2ONH2C2NC2ONH2C2NC2ONH2C2NC2ONH2C2NC2ONH2NCHNCHNCHNCHCNCNCNCNCNCNCNCNCNCNCNCNCNCNCNCNCNCNCNCNCNCNCNCNCNCNCNCNCNCNCNCNCNCNCNCNCNCNCNCNCNCNCNCNCNCNCNCNCNCNCNCNCNCNCNCNCNCNCNCNCNCNCNCNCNCNCNCNCNCNCNCNCNCNCNCNCNCNCNCNCNCNCNCNC2NC2ONH2C2NC2ONH2C2NC2ONH2C2NC2ONH2NCHNCHNCHNCHNCHNCHNCHNCHC2NC2ONH2C2NC2ONH2C2NC2ONH2C2NC2ONH2NCHNCHNCHNCHC2NC2ONH2C2NC2ONH2C2NC2ONH2C2NC2ONH2NCHNCHC2NC2ONH2C2NC2ONH2C2NC2ONH2C2NC2ONH2NCHNCHNCHNCHNCHNCHNCHNCHC2NC2ONH2C2NC2ONH2C2NC2ONH2C2NC2ONH2
_chemical_formula_sum              "N210 C294 H126 O42"
_cell_length_a       51.2717
_cell_length_b       51.2717
_cell_length_c       14.8683
_cell_angle_alpha    90
_cell_angle_beta     90
_cell_angle_gamma    90

_space_group_name_H-M_alt    "P 1"
_space_group_IT_number       1

loop_
  _space_group_symop_operation_xyz
  'x, y, z'

loop_
  _atom_site_type_symbol
  _atom_site_label
  _atom_site_symmetry_multiplicity
  _atom_site_fract_x
  _atom_site_fract_y
  _atom_site_fract_z
  _atom_site_occupancy
  N   N1        1.0  0.13673  0.16537  0.32495  1.0000
  C   C1        1.0  0.11650  0.14849  0.32160  1.0000
  H   H1        1.0  0.09844  0.15512  0.30358  1.0000
  N   N2        1.0  0.87273  0.84307  0.32517  1.0000
  C   C2        1.0  0.89299  0.85991  0.32172  1.0000
  H   H2        1.0  0.91102  0.85327  0.30334  1.0000
  N   N3        1.0  0.84371  0.13616  0.32417  1.0000
  C   C3        1.0  0.86057  0.11591  0.32106  1.0000
  H   H3        1.0  0.85395  0.09785  0.30295  1.0000
  N   N4        1.0  0.16601  0.87216  0.32608  1.0000
  C   C4        1.0  0.14915  0.89240  0.32248  1.0000
  H   H4        1.0  0.15580  0.91043  0.30420  1.0000
  C   C5        1.0  0.09686  0.97840  0.37050  1.0000
  C   C6        1.0  0.09582  0.03249  0.38289  1.0000
  N   N5        1.0  0.11279  0.02010  0.32711  1.0000
  C   C7        1.0  0.11474  0.99364  0.31971  1.0000
  C   C8        1.0  0.13215  0.98408  0.25374  1.0000
  O   O1        1.0  0.15534  0.99637  0.24405  1.0000
  N   N6        1.0  0.12548  0.96623  0.19085  1.0000
  H   H5        1.0  0.10785  0.95936  0.18675  1.0000
  H   H6        1.0  0.13765  0.96183  0.14300  1.0000
  C   C9        1.0  0.91271  0.02996  0.37090  1.0000
  C   C10       1.0  0.91377  0.97585  0.38283  1.0000
  N   N7        1.0  0.89684  0.98828  0.32697  1.0000
  C   C11       1.0  0.89493  0.01474  0.31965  1.0000
  C   C12       1.0  0.87751  0.02436  0.25382  1.0000
  O   O2        1.0  0.85435  0.01203  0.24373  1.0000
  N   N8        1.0  0.88420  0.04220  0.19093  1.0000
  H   H7        1.0  0.90188  0.04896  0.18674  1.0000
  H   H8        1.0  0.87209  0.04652  0.14280  1.0000
  C   C13       1.0  0.03059  0.09624  0.37089  1.0000
  C   C14       1.0  0.97649  0.09518  0.38320  1.0000
  N   N9        1.0  0.98889  0.11214  0.32740  1.0000
  C   C15       1.0  0.01535  0.11410  0.32001  1.0000
  C   C16       1.0  0.02490  0.13149  0.25398  1.0000
  O   O3        1.0  0.01263  0.15469  0.24433  1.0000
  N   N10       1.0  0.04269  0.12478  0.19098  1.0000
  H   H9        1.0  0.04955  0.10714  0.18687  1.0000
  H   H10       1.0  0.04710  0.13694  0.14308  1.0000
  C   C17       1.0  0.97903  0.91211  0.37036  1.0000
  C   C18       1.0  0.03313  0.91315  0.38247  1.0000
  N   N11       1.0  0.02072  0.89621  0.32661  1.0000
  C   C19       1.0  0.99426  0.89430  0.31922  1.0000
  C   C20       1.0  0.98464  0.87687  0.25342  1.0000
  O   O4        1.0  0.99699  0.85372  0.24334  1.0000
  N   N12       1.0  0.96677  0.88352  0.19061  1.0000
  H   H11       1.0  0.95999  0.90119  0.18641  1.0000
  H   H12       1.0  0.96245  0.87141  0.14252  1.0000
  C   C21       1.0  0.16684  0.30115  0.33027  1.0000
  C   C22       1.0  0.18422  0.24918  0.33433  1.0000
  N   N13       1.0  0.15864  0.25547  0.32267  1.0000
  C   C23       1.0  0.14897  0.28020  0.31933  1.0000
  C   C24       1.0  0.12209  0.28265  0.30065  1.0000
  O   O5        1.0  0.10542  0.26560  0.33965  1.0000
  N   N14       1.0  0.11311  0.29722  0.23150  1.0000
  H   H13       1.0  0.12485  0.30727  0.19350  1.0000
  H   H14       1.0  0.09475  0.29664  0.21513  1.0000
  C   C25       1.0  0.84276  0.70741  0.32930  1.0000
  C   C26       1.0  0.82529  0.75933  0.33413  1.0000
  N   N15       1.0  0.85086  0.75310  0.32195  1.0000
  C   C27       1.0  0.86057  0.72840  0.31819  1.0000
  C   C28       1.0  0.88742  0.72600  0.29907  1.0000
  O   O6        1.0  0.90413  0.74316  0.33737  1.0000
  N   N16       1.0  0.89637  0.71144  0.22983  1.0000
  H   H15       1.0  0.88459  0.70140  0.19194  1.0000
  H   H16       1.0  0.91468  0.71217  0.21290  1.0000
  C   C29       1.0  0.70802  0.16617  0.32834  1.0000
  C   C30       1.0  0.75995  0.18362  0.33271  1.0000
  N   N17       1.0  0.75370  0.15804  0.32070  1.0000
  C   C31       1.0  0.72899  0.14834  0.31720  1.0000
  C   C32       1.0  0.72659  0.12148  0.29809  1.0000
  O   O7        1.0  0.74368  0.10479  0.33676  1.0000
  N   N18       1.0  0.71203  0.11257  0.22880  1.0000
  H   H17       1.0  0.70194  0.12435  0.19102  1.0000
  H   H18       1.0  0.71265  0.09424  0.21210  1.0000
  C   C33       1.0  0.30175  0.84208  0.33128  1.0000
  C   C34       1.0  0.24979  0.82469  0.33573  1.0000
  N   N19       1.0  0.25607  0.85026  0.32388  1.0000
  C   C35       1.0  0.28079  0.85993  0.32031  1.0000
  C   C36       1.0  0.28323  0.88681  0.30163  1.0000
  O   O8        1.0  0.26610  0.90349  0.34022  1.0000
  N   N20       1.0  0.29780  0.89582  0.23252  1.0000
  H   H19       1.0  0.30782  0.88408  0.19441  1.0000
  H   H20       1.0  0.29711  0.91416  0.21591  1.0000
  N   N21       1.0  0.82005  0.29612  0.33009  1.0000
  C   C37       1.0  0.81001  0.27180  0.32685  1.0000
  H   H21       1.0  0.79053  0.26932  0.31499  1.0000
  N   N22       1.0  0.18970  0.71218  0.33345  1.0000
  C   C38       1.0  0.19973  0.73650  0.33033  1.0000
  H   H22       1.0  0.21921  0.73899  0.31850  1.0000
  N   N23       1.0  0.29670  0.18900  0.33102  1.0000
  C   C39       1.0  0.27238  0.19906  0.32790  1.0000
  H   H23       1.0  0.26992  0.21855  0.31618  1.0000
  N   N24       1.0  0.71277  0.81936  0.33243  1.0000
  C   C40       1.0  0.73710  0.80935  0.32922  1.0000
  H   H24       1.0  0.73960  0.78987  0.31724  1.0000
  C   C41       1.0  0.37595  0.10204  0.33016  1.0000
  C   C42       1.0  0.39848  0.05121  0.33916  1.0000
  N   N25       1.0  0.37286  0.05512  0.32002  1.0000
  C   C43       1.0  0.36090  0.07893  0.31455  1.0000
  C   C44       1.0  0.33459  0.07817  0.28633  1.0000
  O   O9        1.0  0.31892  0.05931  0.32010  1.0000
  N   N26       1.0  0.32590  0.09178  0.21446  1.0000
  H   H25       1.0  0.33732  0.10341  0.18087  1.0000
  H   H26       1.0  0.30820  0.08926  0.19256  1.0000
  C   C45       1.0  0.63337  0.90615  0.33088  1.0000
  C   C46       1.0  0.61082  0.95697  0.33848  1.0000
  N   N27       1.0  0.63647  0.95304  0.31995  1.0000
  C   C47       1.0  0.64844  0.92923  0.31519  1.0000
  C   C48       1.0  0.67481  0.92998  0.28762  1.0000
  O   O10       1.0  0.69040  0.94892  0.32128  1.0000
  N   N28       1.0  0.68363  0.91638  0.21591  1.0000
  H   H27       1.0  0.67227  0.90477  0.18206  1.0000
  H   H28       1.0  0.70134  0.91898  0.19418  1.0000
  C   C49       1.0  0.90695  0.37542  0.32976  1.0000
  C   C50       1.0  0.95777  0.39794  0.33879  1.0000
  N   N29       1.0  0.95386  0.37233  0.31963  1.0000
  C   C51       1.0  0.93005  0.36037  0.31414  1.0000
  C   C52       1.0  0.93083  0.33406  0.28588  1.0000
  O   O11       1.0  0.94967  0.31839  0.31971  1.0000
  N   N30       1.0  0.91723  0.32538  0.21397  1.0000
  H   H29       1.0  0.90561  0.33680  0.18037  1.0000
  H   H30       1.0  0.91975  0.30768  0.19205  1.0000
  C   C53       1.0  0.10283  0.63283  0.33125  1.0000
  C   C54       1.0  0.05201  0.61029  0.33869  1.0000
  N   N31       1.0  0.05595  0.63594  0.32031  1.0000
  C   C55       1.0  0.07975  0.64792  0.31563  1.0000
  C   C56       1.0  0.07901  0.67429  0.28819  1.0000
  O   O12       1.0  0.06007  0.68987  0.32187  1.0000
  N   N32       1.0  0.09263  0.68315  0.21655  1.0000
  H   H31       1.0  0.10424  0.67179  0.18267  1.0000
  H   H32       1.0  0.09004  0.70086  0.19489  1.0000
  N   N33       1.0  0.60858  0.10208  0.32655  1.0000
  C   C57       1.0  0.59680  0.07840  0.32134  1.0000
  H   H33       1.0  0.57740  0.07799  0.30623  1.0000
  N   N34       1.0  0.40123  0.90612  0.32829  1.0000
  C   C58       1.0  0.41298  0.92983  0.32318  1.0000
  H   H34       1.0  0.43231  0.93038  0.30661  1.0000
  N   N35       1.0  0.10286  0.40066  0.32791  1.0000
  C   C59       1.0  0.07915  0.41243  0.32291  1.0000
  H   H35       1.0  0.07861  0.43177  0.30653  1.0000
  N   N36       1.0  0.90689  0.60801  0.32695  1.0000
  C   C60       1.0  0.93058  0.59625  0.32162  1.0000
  H   H36       1.0  0.93100  0.57685  0.30634  1.0000
  C   C61       1.0  0.53186  0.00612  0.32118  1.0000
  C   C62       1.0  0.47745  0.00256  0.33160  1.0000
  N   N37       1.0  0.48963  0.02488  0.30624  1.0000
  C   C63       1.0  0.51585  0.02787  0.29905  1.0000
  C   C64       1.0  0.52430  0.05191  0.26285  1.0000
  O   O13       1.0  0.51186  0.07397  0.28844  1.0000
  N   N38       1.0  0.54012  0.05316  0.19020  1.0000
  H   H37       1.0  0.54718  0.03751  0.16230  1.0000
  H   H38       1.0  0.54381  0.06988  0.16197  1.0000
  C   C65       1.0  0.00287  0.53133  0.32102  1.0000
  C   C66       1.0  0.00643  0.47692  0.33138  1.0000
  N   N39       1.0  0.98412  0.48909  0.30595  1.0000
  C   C67       1.0  0.98114  0.51531  0.29869  1.0000
  C   C68       1.0  0.95709  0.52379  0.26267  1.0000
  O   O14       1.0  0.93503  0.51125  0.28779  1.0000
  N   N40       1.0  0.95579  0.53966  0.19018  1.0000
  H   H39       1.0  0.97144  0.54673  0.16224  1.0000
  H   H40       1.0  0.93908  0.54328  0.16184  1.0000
  N   N41       1.0  0.23602  0.41751  0.33366  1.0000
  C   C69       1.0  0.21050  0.40973  0.33176  1.0000
  H   H41       1.0  0.19643  0.42228  0.30957  1.0000
  N   N42       1.0  0.77385  0.59086  0.33257  1.0000
  C   C70       1.0  0.79936  0.59870  0.33061  1.0000
  H   H42       1.0  0.81344  0.58618  0.30821  1.0000
  N   N43       1.0  0.59156  0.23516  0.33201  1.0000
  C   C71       1.0  0.59938  0.20964  0.33003  1.0000
  H   H43       1.0  0.58685  0.19556  0.30774  1.0000
  N   N44       1.0  0.41821  0.77299  0.33425  1.0000
  C   C72       1.0  0.41040  0.79850  0.33240  1.0000
  H   H44       1.0  0.42294  0.81258  0.31014  1.0000
  C   C73       1.0  0.75670  0.40288  0.32267  1.0000
  C   C74       1.0  0.80911  0.38481  0.32600  1.0000
  N   N45       1.0  0.78824  0.36953  0.30491  1.0000
  C   C75       1.0  0.76284  0.37664  0.30067  1.0000
  C   C76       1.0  0.74551  0.35704  0.27029  1.0000
  O   O15       1.0  0.74968  0.33214  0.29695  1.0000
  N   N46       1.0  0.72842  0.36106  0.20244  1.0000
  H   H45       1.0  0.72688  0.37794  0.17299  1.0000
  H   H46       1.0  0.71824  0.34661  0.17864  1.0000
  C   C77       1.0  0.25305  0.60538  0.32448  1.0000
  C   C78       1.0  0.20065  0.62349  0.32828  1.0000
  N   N47       1.0  0.22153  0.63878  0.30736  1.0000
  C   C79       1.0  0.24692  0.63166  0.30287  1.0000
  C   C80       1.0  0.26426  0.65129  0.27295  1.0000
  O   O16       1.0  0.26005  0.67618  0.29971  1.0000
  N   N48       1.0  0.28136  0.64741  0.20502  1.0000
  H   H47       1.0  0.28285  0.63058  0.17515  1.0000
  H   H48       1.0  0.29147  0.66192  0.18128  1.0000
  C   C81       1.0  0.40356  0.25225  0.32300  1.0000
  C   C82       1.0  0.38541  0.19986  0.32640  1.0000
  N   N49       1.0  0.37015  0.22076  0.30547  1.0000
  C   C83       1.0  0.37729  0.24615  0.30122  1.0000
  C   C84       1.0  0.35769  0.26351  0.27102  1.0000
  O   O17       1.0  0.33281  0.25936  0.29788  1.0000
  N   N50       1.0  0.36168  0.28059  0.20315  1.0000
  H   H49       1.0  0.37855  0.28211  0.17358  1.0000
  H   H50       1.0  0.34723  0.29080  0.17949  1.0000
  C   C85       1.0  0.60607  0.75589  0.32415  1.0000
  C   C86       1.0  0.62410  0.80832  0.32778  1.0000
  N   N51       1.0  0.63941  0.78746  0.30671  1.0000
  C   C87       1.0  0.63232  0.76206  0.30227  1.0000
  C   C88       1.0  0.65195  0.74474  0.27217  1.0000
  O   O18       1.0  0.67685  0.74898  0.29873  1.0000
  N   N52       1.0  0.64804  0.72765  0.20425  1.0000
  H   H51       1.0  0.63119  0.72614  0.17453  1.0000
  H   H52       1.0  0.66254  0.71756  0.18038  1.0000
  C   C89       1.0  0.31075  0.53138  0.32061  1.0000
  C   C90       1.0  0.31358  0.47622  0.33131  1.0000
  N   N53       1.0  0.29339  0.48893  0.29180  1.0000
  C   C91       1.0  0.29099  0.51515  0.28251  1.0000
  C   C92       1.0  0.26929  0.52333  0.23067  1.0000
  O   O19       1.0  0.24659  0.51002  0.23811  1.0000
  N   N54       1.0  0.27141  0.54090  0.16323  1.0000
  H   H53       1.0  0.28799  0.54909  0.14856  1.0000
  H   H54       1.0  0.25646  0.54475  0.12515  1.0000
  C   C93       1.0  0.69900  0.47686  0.31924  1.0000
  C   C94       1.0  0.69627  0.53201  0.33036  1.0000
  N   N55       1.0  0.71637  0.51931  0.29040  1.0000
  C   C95       1.0  0.71871  0.49308  0.28083  1.0000
  C   C96       1.0  0.74034  0.48488  0.22870  1.0000
  O   O20       1.0  0.76303  0.49826  0.23537  1.0000
  N   N56       1.0  0.73815  0.46729  0.16136  1.0000
  H   H55       1.0  0.72153  0.45913  0.14691  1.0000
  H   H56       1.0  0.75301  0.46351  0.12284  1.0000
  C   C97       1.0  0.47760  0.30990  0.31953  1.0000
  C   C98       1.0  0.53276  0.31271  0.33016  1.0000
  N   N57       1.0  0.52005  0.29255  0.29054  1.0000
  C   C99       1.0  0.49382  0.29016  0.28128  1.0000
  C   C100      1.0  0.48562  0.26850  0.22928  1.0000
  O   O21       1.0  0.49893  0.24579  0.23654  1.0000
  N   N58       1.0  0.46806  0.27066  0.16185  1.0000
  H   H57       1.0  0.45988  0.28726  0.14731  1.0000
  H   H58       1.0  0.46420  0.25574  0.12365  1.0000
  C   C101      1.0  0.53212  0.69817  0.32048  1.0000
  C   C102      1.0  0.47697  0.69541  0.33165  1.0000
  N   N59       1.0  0.48967  0.71555  0.29181  1.0000
  C   C103      1.0  0.51589  0.71790  0.28224  1.0000
  C   C104      1.0  0.52407  0.73958  0.23030  1.0000
  O   O22       1.0  0.51070  0.76226  0.23722  1.0000
  N   N60       1.0  0.54166  0.73745  0.16290  1.0000
  H   H59       1.0  0.54982  0.72085  0.14828  1.0000
  H   H60       1.0  0.54543  0.75234  0.12451  1.0000
  N   N61       1.0  0.39344  0.37006  0.32893  1.0000
  C   C105      1.0  0.37636  0.39060  0.32732  1.0000
  H   H61       1.0  0.38270  0.40846  0.30612  1.0000
  N   N62       1.0  0.61635  0.63810  0.32917  1.0000
  C   C106      1.0  0.63345  0.61758  0.32733  1.0000
  H   H62       1.0  0.62713  0.59973  0.30587  1.0000
  N   N63       1.0  0.63888  0.39264  0.32826  1.0000
  C   C107      1.0  0.61836  0.37554  0.32647  1.0000
  H   H63       1.0  0.60049  0.38188  0.30528  1.0000
  N   N64       1.0  0.37085  0.61555  0.32986  1.0000
  C   C108      1.0  0.39138  0.63263  0.32819  1.0000
  H   H64       1.0  0.40922  0.62631  0.30674  1.0000
  C   C109      1.0  0.05750  0.09153  0.36455  1.0000
  N   N65       1.0  0.07608  0.10990  0.35134  1.0000
  C   C110      1.0  0.10173  0.10306  0.34745  1.0000
  N   N66       1.0  0.10876  0.07759  0.35778  1.0000
  C   C111      1.0  0.09048  0.05909  0.37235  1.0000
  N   N67       1.0  0.06525  0.06653  0.37501  1.0000
  C   C112      1.0  0.95211  0.91683  0.36414  1.0000
  N   N68       1.0  0.93351  0.89846  0.35115  1.0000
  C   C113      1.0  0.90786  0.90531  0.34748  1.0000
  N   N69       1.0  0.90086  0.93077  0.35786  1.0000
  C   C114      1.0  0.91915  0.94928  0.37221  1.0000
  N   N70       1.0  0.94437  0.94184  0.37464  1.0000
  C   C115      1.0  0.91745  0.05687  0.36465  1.0000
  N   N71       1.0  0.89909  0.07546  0.35130  1.0000
  C   C116      1.0  0.90596  0.10111  0.34745  1.0000
  N   N72       1.0  0.93142  0.10812  0.35792  1.0000
  C   C117      1.0  0.94991  0.08983  0.37260  1.0000
  N   N73       1.0  0.94245  0.06461  0.37523  1.0000
  C   C118      1.0  0.09217  0.95148  0.36428  1.0000
  N   N74       1.0  0.11056  0.93289  0.35145  1.0000
  C   C119      1.0  0.10372  0.90723  0.34775  1.0000
  N   N75       1.0  0.07824  0.90022  0.35788  1.0000
  C   C120      1.0  0.05972  0.91851  0.37198  1.0000
  N   N76       1.0  0.06716  0.94373  0.37449  1.0000
  C   C121      1.0  0.22506  0.19028  0.33803  1.0000
  N   N77       1.0  0.21772  0.21575  0.33563  1.0000
  C   C122      1.0  0.19212  0.22285  0.33637  1.0000
  N   N78       1.0  0.17381  0.20377  0.34066  1.0000
  C   C123      1.0  0.18050  0.17819  0.34442  1.0000
  N   N79       1.0  0.20612  0.17201  0.34194  1.0000
  C   C124      1.0  0.78441  0.81820  0.33904  1.0000
  N   N80       1.0  0.79175  0.79273  0.33626  1.0000
  C   C125      1.0  0.81736  0.78565  0.33659  1.0000
  N   N81       1.0  0.83566  0.80473  0.34088  1.0000
  C   C126      1.0  0.82896  0.83030  0.34501  1.0000
  N   N82       1.0  0.80334  0.83648  0.34293  1.0000
  C   C127      1.0  0.81883  0.22449  0.33703  1.0000
  N   N83       1.0  0.79335  0.21715  0.33436  1.0000
  C   C128      1.0  0.78627  0.19154  0.33498  1.0000
  N   N84       1.0  0.80534  0.17324  0.33945  1.0000
  C   C129      1.0  0.83091  0.17994  0.34347  1.0000
  N   N85       1.0  0.83710  0.20555  0.34109  1.0000
  C   C130      1.0  0.19090  0.78382  0.34013  1.0000
  N   N86       1.0  0.21637  0.79117  0.33756  1.0000
  C   C131      1.0  0.22346  0.81678  0.33799  1.0000
  N   N87       1.0  0.20438  0.83508  0.34211  1.0000
  C   C132      1.0  0.17880  0.82839  0.34600  1.0000
  N   N88       1.0  0.17262  0.80277  0.34385  1.0000
  C   C133      1.0  0.40998  0.97852  0.33777  1.0000
  N   N89       1.0  0.39692  0.00205  0.33937  1.0000
  C   C134      1.0  0.40990  0.02561  0.33895  1.0000
  N   N90       1.0  0.43634  0.02460  0.33612  1.0000
  C   C135      1.0  0.45003  0.00209  0.33514  1.0000
  N   N91       1.0  0.43645  0.97952  0.33613  1.0000
  C   C136      1.0  0.59976  0.02961  0.33344  1.0000
  N   N92       1.0  0.61261  0.00602  0.33728  1.0000
  C   C137      1.0  0.59943  0.98257  0.33644  1.0000
  N   N93       1.0  0.57302  0.98369  0.33047  1.0000
  C   C138      1.0  0.55945  0.00626  0.32540  1.0000
  N   N94       1.0  0.57335  0.02862  0.32826  1.0000
  C   C139      1.0  0.03046  0.40944  0.33753  1.0000
  N   N95       1.0  0.00693  0.39638  0.33906  1.0000
  C   C140      1.0  0.98338  0.40937  0.33861  1.0000
  N   N96       1.0  0.98439  0.43581  0.33584  1.0000
  C   C141      1.0  0.00690  0.44950  0.33493  1.0000
  N   N97       1.0  0.02946  0.43591  0.33592  1.0000
  C   C142      1.0  0.97937  0.59921  0.33370  1.0000
  N   N98       1.0  0.00296  0.61206  0.33756  1.0000
  C   C143      1.0  0.02642  0.59889  0.33664  1.0000
  N   N99       1.0  0.02529  0.57248  0.33054  1.0000
  C   C144      1.0  0.00273  0.55891  0.32542  1.0000
  N   N100      1.0  0.98036  0.57281  0.32837  1.0000
  C   C145      1.0  0.32925  0.40543  0.34807  1.0000
  N   N101      1.0  0.33259  0.43187  0.34151  1.0000
  C   C146      1.0  0.31174  0.44859  0.33907  1.0000
  N   N102      1.0  0.28729  0.43817  0.34411  1.0000
  C   C147      1.0  0.28272  0.41223  0.35252  1.0000
  N   N103      1.0  0.30419  0.39659  0.35327  1.0000
  C   C148      1.0  0.68058  0.60279  0.34761  1.0000
  N   N104      1.0  0.67727  0.57635  0.34095  1.0000
  C   C149      1.0  0.69813  0.55964  0.33824  1.0000
  N   N105      1.0  0.72258  0.57008  0.34313  1.0000
  C   C150      1.0  0.72713  0.59603  0.35163  1.0000
  N   N106      1.0  0.70564  0.61164  0.35265  1.0000
  C   C151      1.0  0.60356  0.32841  0.34691  1.0000
  N   N107      1.0  0.57711  0.33173  0.34038  1.0000
  C   C152      1.0  0.56040  0.31087  0.33783  1.0000
  N   N108      1.0  0.57084  0.28642  0.34272  1.0000
  C   C153      1.0  0.59679  0.28187  0.35108  1.0000
  N   N109      1.0  0.61241  0.30335  0.35196  1.0000
  C   C154      1.0  0.40620  0.67974  0.34878  1.0000
  N   N110      1.0  0.43263  0.67641  0.34210  1.0000
  C   C155      1.0  0.44935  0.69727  0.33954  1.0000
  N   N111      1.0  0.43892  0.72172  0.34456  1.0000
  C   C156      1.0  0.41297  0.72628  0.35307  1.0000
  N   N112      1.0  0.39735  0.70480  0.35395  1.0000
  C   C157      1.0  0.68438  0.40558  0.34518  1.0000
  N   N113      1.0  0.68077  0.43205  0.33791  1.0000
  C   C158      1.0  0.70129  0.44905  0.32745  1.0000
  N   N114      1.0  0.72573  0.43862  0.32550  1.0000
  C   C159      1.0  0.73067  0.41274  0.32951  1.0000
  N   N115      1.0  0.70950  0.39708  0.33918  1.0000
  C   C160      1.0  0.32536  0.60263  0.34685  1.0000
  N   N116      1.0  0.32896  0.57617  0.33944  1.0000
  C   C161      1.0  0.30843  0.55919  0.32891  1.0000
  N   N117      1.0  0.28400  0.56963  0.32706  1.0000
  C   C162      1.0  0.27906  0.59550  0.33121  1.0000
  N   N118      1.0  0.30024  0.61115  0.34095  1.0000
  C   C163      1.0  0.40634  0.32455  0.34566  1.0000
  N   N119      1.0  0.43281  0.32814  0.33832  1.0000
  C   C164      1.0  0.44979  0.30761  0.32774  1.0000
  N   N120      1.0  0.43933  0.28318  0.32577  1.0000
  C   C165      1.0  0.41346  0.27826  0.32985  1.0000
  N   N121      1.0  0.39781  0.29944  0.33964  1.0000
  C   C166      1.0  0.60340  0.68357  0.34631  1.0000
  N   N122      1.0  0.57693  0.67996  0.33906  1.0000
  C   C167      1.0  0.55993  0.70048  0.32868  1.0000
  N   N123      1.0  0.57035  0.72492  0.32685  1.0000
  C   C168      1.0  0.59622  0.72986  0.33088  1.0000
  N   N124      1.0  0.61190  0.70869  0.34046  1.0000
  C   C169      1.0  0.17961  0.37099  0.34778  1.0000
  N   N125      1.0  0.15482  0.38114  0.34945  1.0000
  C   C170      1.0  0.13300  0.36540  0.34616  1.0000
  N   N126      1.0  0.13702  0.33920  0.33844  1.0000
  C   C171      1.0  0.16107  0.32823  0.33489  1.0000
  N   N127      1.0  0.18142  0.34478  0.34064  1.0000
  C   C172      1.0  0.83017  0.63753  0.34652  1.0000
  N   N128      1.0  0.85499  0.62746  0.34806  1.0000
  C   C173      1.0  0.87678  0.64325  0.34477  1.0000
  N   N129      1.0  0.87268  0.66945  0.33721  1.0000
  C   C174      1.0  0.84859  0.68034  0.33384  1.0000
  N   N130      1.0  0.82828  0.66374  0.33953  1.0000
  C   C175      1.0  0.63816  0.17879  0.34609  1.0000
  N   N131      1.0  0.62807  0.15398  0.34758  1.0000
  C   C176      1.0  0.64385  0.13218  0.34415  1.0000
  N   N132      1.0  0.67005  0.13626  0.33641  1.0000
  C   C177      1.0  0.68095  0.16034  0.33298  1.0000
  N   N133      1.0  0.66436  0.18066  0.33888  1.0000
  C   C178      1.0  0.37161  0.82935  0.34841  1.0000
  N   N134      1.0  0.38175  0.85414  0.34997  1.0000
  C   C179      1.0  0.36600  0.87596  0.34678  1.0000
  N   N135      1.0  0.33979  0.87192  0.33927  1.0000
  C   C180      1.0  0.32883  0.84786  0.33586  1.0000
  N   N136      1.0  0.34540  0.82752  0.34143  1.0000
  C   C181      1.0  0.83393  0.37210  0.33156  1.0000
  N   N137      1.0  0.85884  0.38196  0.32982  1.0000
  C   C182      1.0  0.88051  0.36596  0.33249  1.0000
  N   N138      1.0  0.87620  0.33976  0.33918  1.0000
  C   C183      1.0  0.85202  0.32908  0.34244  1.0000
  N   N139      1.0  0.83195  0.34591  0.33778  1.0000
  C   C184      1.0  0.17583  0.63620  0.33393  1.0000
  N   N140      1.0  0.15094  0.62632  0.33181  1.0000
  C   C185      1.0  0.12926  0.64231  0.33460  1.0000
  N   N141      1.0  0.13356  0.66851  0.34168  1.0000
  C   C186      1.0  0.15773  0.67919  0.34526  1.0000
  N   N142      1.0  0.17780  0.66237  0.34055  1.0000
  C   C187      1.0  0.37267  0.17505  0.33190  1.0000
  N   N143      1.0  0.38251  0.15014  0.33019  1.0000
  C   C188      1.0  0.36650  0.12848  0.33291  1.0000
  N   N144      1.0  0.34030  0.13280  0.33969  1.0000
  C   C189      1.0  0.32964  0.15700  0.34300  1.0000
  N   N145      1.0  0.34648  0.17705  0.33826  1.0000
  C   C190      1.0  0.63678  0.83315  0.33331  1.0000
  N   N146      1.0  0.62688  0.85804  0.33137  1.0000
  C   C191      1.0  0.64285  0.87973  0.33413  1.0000
  N   N147      1.0  0.66906  0.87545  0.34108  1.0000
  C   C192      1.0  0.67976  0.85129  0.34451  1.0000
  N   N148      1.0  0.66296  0.83120  0.33984  1.0000
  C   C193      1.0  0.16141  0.15855  0.34913  1.0000
  C   C194      1.0  0.12122  0.12212  0.34235  1.0000
  N   N149      1.0  0.14575  0.11540  0.36726  1.0000
  C   C195      1.0  0.16618  0.13204  0.37209  1.0000
  C   C196      1.0  0.18949  0.12127  0.40696  1.0000
  O   O23       1.0  0.19661  0.09708  0.37998  1.0000
  N   N150      1.0  0.20202  0.13168  0.47845  1.0000
  H   H65       1.0  0.19588  0.14759  0.50724  1.0000
  H   H66       1.0  0.21688  0.12272  0.50491  1.0000
  C   C197      1.0  0.84809  0.84991  0.34974  1.0000
  C   C198      1.0  0.88834  0.88628  0.34270  1.0000
  N   N151      1.0  0.86384  0.89303  0.36791  1.0000
  C   C199      1.0  0.84340  0.87642  0.37299  1.0000
  C   C200      1.0  0.82010  0.88721  0.40787  1.0000
  O   O24       1.0  0.81307  0.91147  0.38142  1.0000
  N   N152      1.0  0.80755  0.87680  0.47934  1.0000
  H   H67       1.0  0.81368  0.86090  0.50812  1.0000
  H   H68       1.0  0.79277  0.88584  0.50606  1.0000
  C   C201      1.0  0.85053  0.16083  0.34843  1.0000
  C   C202      1.0  0.88692  0.12060  0.34220  1.0000
  N   N153      1.0  0.89365  0.14513  0.36711  1.0000
  C   C203      1.0  0.87703  0.16558  0.37169  1.0000
  C   C204      1.0  0.88778  0.18889  0.40664  1.0000
  O   O25       1.0  0.91200  0.19598  0.37992  1.0000
  N   N154      1.0  0.87731  0.20143  0.47800  1.0000
  H   H69       1.0  0.86137  0.19532  0.50662  1.0000
  H   H70       1.0  0.88626  0.21630  0.50453  1.0000
  C   C205      1.0  0.15917  0.84750  0.35052  1.0000
  C   C206      1.0  0.12277  0.88773  0.34321  1.0000
  N   N155      1.0  0.11602  0.86322  0.36828  1.0000
  C   C207      1.0  0.13265  0.84279  0.37350  1.0000
  C   C208      1.0  0.12184  0.81948  0.40820  1.0000
  O   O26       1.0  0.09761  0.81243  0.38144  1.0000
  N   N156      1.0  0.13217  0.80693  0.47981  1.0000
  H   H71       1.0  0.14805  0.81307  0.50880  1.0000
  H   H72       1.0  0.12312  0.79214  0.50639  1.0000
  N   N157      1.0  0.08051  0.99107  0.42756  1.0000
  C   C209      1.0  0.07958  0.01706  0.43754  1.0000
  H   H73       1.0  0.06581  0.02491  0.47935  1.0000
  N   N158      1.0  0.92906  0.01725  0.42784  1.0000
  C   C210      1.0  0.92998  0.99125  0.43770  1.0000
  H   H74       1.0  0.94381  0.98339  0.47927  1.0000
  N   N159      1.0  0.01792  0.07988  0.42790  1.0000
  C   C211      1.0  0.99192  0.07894  0.43784  1.0000
  H   H75       1.0  0.98407  0.06517  0.47963  1.0000
  N   N160      1.0  0.99173  0.92845  0.42737  1.0000
  C   C212      1.0  0.01772  0.92936  0.43733  1.0000
  H   H76       1.0  0.02558  0.94318  0.47894  1.0000
  N   N161      1.0  0.19239  0.29455  0.34177  1.0000
  C   C213      1.0  0.20188  0.27000  0.34331  1.0000
  H   H77       1.0  0.22142  0.26715  0.35275  1.0000
  N   N162      1.0  0.81720  0.71395  0.34138  1.0000
  C   C214      1.0  0.80768  0.73848  0.34322  1.0000
  H   H78       1.0  0.78815  0.74130  0.35317  1.0000
  N   N163      1.0  0.71457  0.19172  0.34019  1.0000
  C   C215      1.0  0.73911  0.20124  0.34186  1.0000
  H   H79       1.0  0.74193  0.22078  0.35159  1.0000
  N   N164      1.0  0.29517  0.81653  0.34300  1.0000
  C   C216      1.0  0.27062  0.80703  0.34468  1.0000
  H   H80       1.0  0.26778  0.78750  0.35436  1.0000
  C   C217      1.0  0.84561  0.30216  0.34540  1.0000
  C   C218      1.0  0.82711  0.25067  0.33840  1.0000
  N   N165      1.0  0.85265  0.25642  0.35399  1.0000
  C   C219      1.0  0.86289  0.28086  0.35870  1.0000
  C   C220      1.0  0.88956  0.28264  0.38148  1.0000
  O   O27       1.0  0.90618  0.26480  0.34660  1.0000
  N   N166      1.0  0.89815  0.29747  0.45057  1.0000
  H   H81       1.0  0.88627  0.30808  0.48615  1.0000
  H   H82       1.0  0.91626  0.29642  0.46975  1.0000
  C   C221      1.0  0.16413  0.70612  0.34859  1.0000
  C   C222      1.0  0.18262  0.75764  0.34166  1.0000
  N   N167      1.0  0.15707  0.75187  0.35703  1.0000
  C   C223      1.0  0.14684  0.72742  0.36174  1.0000
  C   C224      1.0  0.12014  0.72562  0.38411  1.0000
  O   O28       1.0  0.10355  0.74356  0.34957  1.0000
  N   N168      1.0  0.11144  0.71074  0.45290  1.0000
  H   H83       1.0  0.12329  0.70015  0.48866  1.0000
  H   H84       1.0  0.09334  0.71188  0.47210  1.0000
  C   C225      1.0  0.30272  0.16343  0.34612  1.0000
  C   C226      1.0  0.25124  0.18197  0.33933  1.0000
  N   N169      1.0  0.25697  0.15642  0.35469  1.0000
  C   C227      1.0  0.28141  0.14616  0.35927  1.0000
  C   C228      1.0  0.28317  0.11946  0.38182  1.0000
  O   O29       1.0  0.26532  0.10288  0.34678  1.0000
  N   N170      1.0  0.29799  0.11082  0.45087  1.0000
  H   H85       1.0  0.30860  0.12267  0.48655  1.0000
  H   H86       1.0  0.29692  0.09270  0.46989  1.0000
  C   C229      1.0  0.70670  0.84491  0.34775  1.0000
  C   C230      1.0  0.75822  0.82647  0.34068  1.0000
  N   N171      1.0  0.75244  0.85200  0.35625  1.0000
  C   C231      1.0  0.72798  0.86220  0.36106  1.0000
  C   C232      1.0  0.72616  0.88889  0.38363  1.0000
  O   O30       1.0  0.74408  0.90551  0.34924  1.0000
  N   N172      1.0  0.71127  0.89754  0.45247  1.0000
  H   H87       1.0  0.70068  0.88566  0.48814  1.0000
  H   H88       1.0  0.71239  0.91563  0.47181  1.0000
  N   N173      1.0  0.40160  0.09806  0.34896  1.0000
  C   C233      1.0  0.41323  0.07428  0.35328  1.0000
  H   H89       1.0  0.43270  0.07363  0.36780  1.0000
  N   N174      1.0  0.60768  0.91016  0.34907  1.0000
  C   C234      1.0  0.59603  0.93395  0.35269  1.0000
  H   H90       1.0  0.57653  0.93465  0.36664  1.0000
  N   N175      1.0  0.91092  0.40106  0.34861  1.0000
  C   C235      1.0  0.93470  0.41269  0.35296  1.0000
  H   H91       1.0  0.93535  0.43216  0.36751  1.0000
  N   N176      1.0  0.09882  0.60713  0.34933  1.0000
  C   C236      1.0  0.07503  0.59549  0.35288  1.0000
  H   H92       1.0  0.07433  0.57598  0.36677  1.0000
  C   C237      1.0  0.63417  0.10583  0.34671  1.0000
  C   C238      1.0  0.61130  0.05517  0.33566  1.0000
  N   N177      1.0  0.63683  0.05888  0.35658  1.0000
  C   C239      1.0  0.64894  0.08260  0.36328  1.0000
  C   C240      1.0  0.67504  0.08164  0.39368  1.0000
  O   O31       1.0  0.69066  0.06237  0.36257  1.0000
  N   N178      1.0  0.68347  0.09559  0.46516  1.0000
  H   H93       1.0  0.67199  0.10754  0.49714  1.0000
  H   H94       1.0  0.70097  0.09292  0.48871  1.0000
  C   C241      1.0  0.37572  0.90229  0.34960  1.0000
  C   C242      1.0  0.39848  0.95297  0.33892  1.0000
  N   N179      1.0  0.37302  0.94920  0.36069  1.0000
  C   C243      1.0  0.36097  0.92546  0.36720  1.0000
  C   C244      1.0  0.33492  0.92635  0.39817  1.0000
  O   O32       1.0  0.31923  0.94571  0.36811  1.0000
  N   N180      1.0  0.32659  0.91225  0.46946  1.0000
  H   H95       1.0  0.33813  0.90027  0.50100  1.0000
  H   H96       1.0  0.30916  0.91493  0.49357  1.0000
  C   C245      1.0  0.10667  0.37513  0.34898  1.0000
  C   C246      1.0  0.05601  0.39793  0.33861  1.0000
  N   N181      1.0  0.05977  0.37246  0.36019  1.0000
  C   C247      1.0  0.08350  0.36038  0.36651  1.0000
  C   C248      1.0  0.08260  0.33433  0.39754  1.0000
  O   O33       1.0  0.06328  0.31865  0.36716  1.0000
  N   N182      1.0  0.09670  0.32602  0.46881  1.0000
  H   H97       1.0  0.10872  0.33755  0.50025  1.0000
  H   H98       1.0  0.09410  0.30855  0.49273  1.0000
  C   C249      1.0  0.90313  0.63358  0.34736  1.0000
  C   C250      1.0  0.95380  0.61074  0.33598  1.0000
  N   N183      1.0  0.95008  0.63626  0.35710  1.0000
  C   C251      1.0  0.92636  0.64835  0.36399  1.0000
  C   C252      1.0  0.92730  0.67445  0.39433  1.0000
  O   O34       1.0  0.94662  0.69007  0.36357  1.0000
  N   N184      1.0  0.91336  0.68290  0.46582  1.0000
  H   H99       1.0  0.90145  0.67141  0.49790  1.0000
  H   H100      1.0  0.91610  0.70037  0.48955  1.0000
  N   N185      1.0  0.51958  0.98366  0.34568  1.0000
  C   C253      1.0  0.49335  0.98082  0.35037  1.0000
  H   H101      1.0  0.48569  0.96330  0.36985  1.0000
  N   N186      1.0  0.02532  0.51904  0.34561  1.0000
  C   C254      1.0  0.02817  0.49281  0.35020  1.0000
  H   H102      1.0  0.04567  0.48515  0.36987  1.0000
  C   C255      1.0  0.25667  0.40222  0.35919  1.0000
  C   C256      1.0  0.20435  0.38375  0.35440  1.0000
  N   N187      1.0  0.22503  0.36895  0.38103  1.0000
  C   C257      1.0  0.25036  0.37640  0.38649  1.0000
  C   C258      1.0  0.26758  0.35762  0.42303  1.0000
  O   O35       1.0  0.26432  0.33230  0.39982  1.0000
  N   N188      1.0  0.28330  0.36296  0.49367  1.0000
  H   H103      1.0  0.28404  0.38030  0.52021  1.0000
  H   H104      1.0  0.29334  0.34911  0.52200  1.0000
  C   C259      1.0  0.75317  0.60609  0.35823  1.0000
  C   C260      1.0  0.80544  0.62470  0.35307  1.0000
  N   N189      1.0  0.78474  0.63943  0.37990  1.0000
  C   C261      1.0  0.75944  0.63192  0.38557  1.0000
  C   C262      1.0  0.74219  0.65067  0.42212  1.0000
  O   O36       1.0  0.74544  0.67602  0.39927  1.0000
  N   N190      1.0  0.72651  0.64532  0.49287  1.0000
  H   H105      1.0  0.72584  0.62799  0.51950  1.0000
  H   H106      1.0  0.71654  0.65918  0.52144  1.0000
  C   C263      1.0  0.60682  0.25582  0.35769  1.0000
  C   C264      1.0  0.62535  0.20352  0.35272  1.0000
  N   N191      1.0  0.64012  0.22421  0.37948  1.0000
  C   C265      1.0  0.63264  0.24953  0.38500  1.0000
  C   C266      1.0  0.65139  0.26676  0.42168  1.0000
  O   O37       1.0  0.67672  0.26354  0.39851  1.0000
  N   N192      1.0  0.64602  0.28244  0.49238  1.0000
  H   H107      1.0  0.62868  0.28315  0.51887  1.0000
  H   H108      1.0  0.65985  0.29248  0.52079  1.0000
  C   C267      1.0  0.40294  0.75232  0.35975  1.0000
  C   C268      1.0  0.38440  0.80461  0.35481  1.0000
  N   N193      1.0  0.36963  0.78392  0.38150  1.0000
  C   C269      1.0  0.37711  0.75860  0.38706  1.0000
  C   C270      1.0  0.35834  0.74136  0.42346  1.0000
  O   O38       1.0  0.33300  0.74465  0.40057  1.0000
  N   N194      1.0  0.36365  0.72564  0.49415  1.0000
  H   H109      1.0  0.38097  0.72494  0.52083  1.0000
  H   H110      1.0  0.34977  0.71568  0.52264  1.0000
  N   N195      1.0  0.77744  0.41877  0.34233  1.0000
  C   C271      1.0  0.80302  0.41113  0.34339  1.0000
  H   H111      1.0  0.81722  0.42416  0.36083  1.0000
  N   N196      1.0  0.23230  0.58948  0.34389  1.0000
  C   C272      1.0  0.20672  0.59712  0.34505  1.0000
  H   H112      1.0  0.19252  0.58409  0.36238  1.0000
  N   N197      1.0  0.41943  0.23148  0.34251  1.0000
  C   C273      1.0  0.41175  0.20591  0.34360  1.0000
  H   H113      1.0  0.42477  0.19168  0.36090  1.0000
  N   N198      1.0  0.59015  0.77662  0.34368  1.0000
  C   C274      1.0  0.59776  0.80221  0.34479  1.0000
  H   H114      1.0  0.58471  0.81639  0.36223  1.0000
  N   N199      1.0  0.33139  0.51872  0.35909  1.0000
  C   C275      1.0  0.33395  0.49221  0.36366  1.0000
  H   H115      1.0  0.34974  0.48430  0.39557  1.0000
  N   N200      1.0  0.67843  0.48953  0.35814  1.0000
  C   C276      1.0  0.67590  0.51604  0.36283  1.0000
  H   H116      1.0  0.66019  0.52394  0.39520  1.0000
  N   N201      1.0  0.49027  0.33054  0.35802  1.0000
  C   C277      1.0  0.51679  0.33309  0.36256  1.0000
  H   H117      1.0  0.52470  0.34886  0.39447  1.0000
  N   N202      1.0  0.51947  0.67757  0.35923  1.0000
  C   C278      1.0  0.49295  0.67502  0.36392  1.0000
  H   H118      1.0  0.48506  0.65929  0.39616  1.0000
  C   C279      1.0  0.38730  0.34518  0.35461  1.0000
  C   C280      1.0  0.34991  0.38653  0.35032  1.0000
  N   N203      1.0  0.34407  0.36186  0.37682  1.0000
  C   C281      1.0  0.36083  0.34132  0.38168  1.0000
  C   C282      1.0  0.34993  0.31839  0.41903  1.0000
  O   O39       1.0  0.32501  0.31214  0.39794  1.0000
  N   N204      1.0  0.36134  0.30527  0.48738  1.0000
  H   H119      1.0  0.37802  0.31074  0.51233  1.0000
  H   H120      1.0  0.35239  0.29070  0.51570  1.0000
  C   C283      1.0  0.62246  0.66297  0.35510  1.0000
  C   C284      1.0  0.65991  0.62166  0.35017  1.0000
  N   N205      1.0  0.66573  0.64632  0.37688  1.0000
  C   C285      1.0  0.64894  0.66682  0.38210  1.0000
  C   C286      1.0  0.65984  0.68977  0.41940  1.0000
  O   O40       1.0  0.68476  0.69603  0.39848  1.0000
  N   N206      1.0  0.64846  0.70286  0.48790  1.0000
  H   H121      1.0  0.63183  0.69734  0.51303  1.0000
  H   H122      1.0  0.65746  0.71738  0.51641  1.0000
  C   C287      1.0  0.66377  0.38652  0.35398  1.0000
  C   C288      1.0  0.62244  0.34908  0.34930  1.0000
  N   N207      1.0  0.64712  0.34325  0.37579  1.0000
  C   C289      1.0  0.66764  0.36002  0.38081  1.0000
  C   C290      1.0  0.69058  0.34912  0.41812  1.0000
  O   O41       1.0  0.69686  0.32423  0.39682  1.0000
  N   N208      1.0  0.70367  0.36049  0.48661  1.0000
  H   H123      1.0  0.69818  0.37714  0.51168  1.0000
  H   H124      1.0  0.71825  0.35154  0.51488  1.0000
  C   C291      1.0  0.34597  0.62168  0.35574  1.0000
  C   C292      1.0  0.38731  0.65908  0.35118  1.0000
  N   N209      1.0  0.36265  0.66491  0.37789  1.0000
  C   C293      1.0  0.34213  0.64814  0.38296  1.0000
  C   C294      1.0  0.31920  0.65903  0.42029  1.0000
  O   O42       1.0  0.31296  0.68398  0.39955  1.0000
  N   N210      1.0  0.30608  0.64763  0.48867  1.0000
  H   H125      1.0  0.31158  0.63097  0.51368  1.0000
  H   H126      1.0  0.29156  0.65662  0.51722  1.0000
