data_image0
_chemical_formula_structural       C3HCH3C3HCH3C3HCH3C3HCH3C3HCH3C3HCH3C3HCH3C3HCH3C3HCH3C3HCH3C3HCH3C3HCH3C3HCH3C3HCH3C3HCH3C3HCH3C3HCH3C3HCH3C3HCH3C3HCH3C3HCH3C3HCH3C3HCH3C3HCH3C6H3C6H3C6H3C6H3C6H3C6H3C6H3C6H3C6H3C6H3C6H3C6H3C6H3C6H3C6H3C6H3C3HCH3C3HCH3C3HCH3C3HCH3C3HCH3C3HCH3C3HCH3C3HCH3C3HCH3C3HCH3C3HCH3C3HCH3C3HCH3C3HCH3C3HCH3C3HCH3C3HCH3C3HCH3C3HCH3C3HCH3C3HCH3C3HCH3C3HCH3C3HCH3
_chemical_formula_sum              "C288 H240"
_cell_length_a       42.1621
_cell_length_b       42.1621
_cell_length_c       14.8244
_cell_angle_alpha    90
_cell_angle_beta     90
_cell_angle_gamma    120

_space_group_name_H-M_alt    "P 1"
_space_group_IT_number       1

loop_
  _space_group_symop_operation_xyz
  'x, y, z'

loop_
  _atom_site_type_symbol
  _atom_site_label
  _atom_site_symmetry_multiplicity
  _atom_site_fract_x
  _atom_site_fract_y
  _atom_site_fract_z
  _atom_site_occupancy
  C   C1        1.0  0.00878  0.12605  0.26386  1.0000
  C   C2        1.0  0.00879  0.09223  0.26251  1.0000
  C   C3        1.0  0.00887  0.07463  0.34503  1.0000
  H   H1        1.0  0.00872  0.13826  0.20419  1.0000
  C   C4        1.0  0.00872  0.07568  0.17364  1.0000
  H   H2        1.0  0.00868  0.09206  0.11662  1.0000
  H   H3        1.0  0.98440  0.04861  0.16794  1.0000
  H   H4        1.0  0.03305  0.07294  0.16772  1.0000
  C   C5        1.0  0.88875  0.88569  0.26387  1.0000
  C   C6        1.0  0.92258  0.91952  0.26251  1.0000
  C   C7        1.0  0.94017  0.93720  0.34503  1.0000
  H   H5        1.0  0.87654  0.87342  0.20419  1.0000
  C   C8        1.0  0.93912  0.93600  0.17364  1.0000
  H   H6        1.0  0.92275  0.91958  0.11662  1.0000
  H   H7        1.0  0.96619  0.93874  0.16794  1.0000
  H   H8        1.0  0.94186  0.96306  0.16772  1.0000
  C   C9        1.0  0.12912  0.00602  0.26386  1.0000
  C   C10       1.0  0.09529  0.00601  0.26251  1.0000
  C   C11       1.0  0.07760  0.00593  0.34503  1.0000
  H   H9        1.0  0.14138  0.00608  0.20418  1.0000
  C   C12       1.0  0.07881  0.00608  0.17363  1.0000
  H   H10       1.0  0.09523  0.00612  0.11661  1.0000
  H   H11       1.0  0.07606  0.03040  0.16794  1.0000
  H   H12       1.0  0.05175  0.98176  0.16771  1.0000
  C   C13       1.0  0.13250  0.35734  0.34523  1.0000
  C   C14       1.0  0.08991  0.30095  0.26201  1.0000
  C   C15       1.0  0.11800  0.33828  0.26375  1.0000
  H   H13       1.0  0.12756  0.35224  0.20418  1.0000
  C   C16       1.0  0.07621  0.28461  0.17118  1.0000
  H   H14       1.0  0.05543  0.25569  0.17321  1.0000
  H   H15       1.0  0.09893  0.28706  0.13053  1.0000
  H   H16       1.0  0.06435  0.29925  0.13726  1.0000
  C   C17       1.0  0.65746  0.77811  0.34522  1.0000
  C   C18       1.0  0.71386  0.79192  0.26199  1.0000
  C   C19       1.0  0.67653  0.78269  0.26374  1.0000
  H   H17       1.0  0.66256  0.77829  0.20417  1.0000
  C   C20       1.0  0.73020  0.79457  0.17116  1.0000
  H   H18       1.0  0.75911  0.80269  0.17321  1.0000
  H   H19       1.0  0.72775  0.81484  0.13052  1.0000
  H   H20       1.0  0.71555  0.76807  0.13724  1.0000
  C   C21       1.0  0.23670  0.88232  0.34524  1.0000
  C   C22       1.0  0.22288  0.92490  0.26202  1.0000
  C   C23       1.0  0.23212  0.89681  0.26377  1.0000
  H   H21       1.0  0.23652  0.88725  0.20420  1.0000
  C   C24       1.0  0.22023  0.93860  0.17120  1.0000
  H   H22       1.0  0.21210  0.95938  0.17323  1.0000
  H   H23       1.0  0.19996  0.91588  0.13056  1.0000
  H   H24       1.0  0.24673  0.95045  0.13726  1.0000
  C   C25       1.0  0.34096  0.11530  0.26373  1.0000
  C   C26       1.0  0.30364  0.08715  0.26241  1.0000
  C   C27       1.0  0.28452  0.07258  0.34538  1.0000
  H   H25       1.0  0.35475  0.12522  0.20416  1.0000
  C   C28       1.0  0.28554  0.07278  0.17354  1.0000
  H   H26       1.0  0.30334  0.08721  0.11648  1.0000
  H   H27       1.0  0.26128  0.07564  0.16821  1.0000
  H   H28       1.0  0.27730  0.04387  0.16729  1.0000
  C   C29       1.0  0.78617  0.67383  0.26373  1.0000
  C   C30       1.0  0.79536  0.71116  0.26242  1.0000
  C   C31       1.0  0.79991  0.73029  0.34536  1.0000
  H   H29       1.0  0.78231  0.66004  0.20416  1.0000
  C   C32       1.0  0.79908  0.72925  0.17354  1.0000
  H   H30       1.0  0.79570  0.71145  0.11648  1.0000
  H   H31       1.0  0.82620  0.75351  0.16821  1.0000
  H   H32       1.0  0.77841  0.73750  0.16730  1.0000
  C   C33       1.0  0.89951  0.22863  0.26373  1.0000
  C   C34       1.0  0.92764  0.21944  0.26241  1.0000
  C   C35       1.0  0.94223  0.21490  0.34536  1.0000
  H   H33       1.0  0.88958  0.23249  0.20415  1.0000
  C   C36       1.0  0.94202  0.21572  0.17354  1.0000
  H   H34       1.0  0.92759  0.21910  0.11648  1.0000
  H   H35       1.0  0.93916  0.18860  0.16821  1.0000
  H   H36       1.0  0.97093  0.23639  0.16729  1.0000
  C   C37       1.0  0.32002  0.48801  0.26280  1.0000
  C   C38       1.0  0.28126  0.46923  0.26173  1.0000
  C   C39       1.0  0.26175  0.45983  0.34520  1.0000
  H   H37       1.0  0.33423  0.49433  0.20322  1.0000
  C   C40       1.0  0.26199  0.46003  0.17304  1.0000
  H   H38       1.0  0.28077  0.46834  0.11579  1.0000
  H   H39       1.0  0.24598  0.47377  0.16654  1.0000
  H   H40       1.0  0.24359  0.43050  0.16833  1.0000
  C   C41       1.0  0.52678  0.83497  0.26280  1.0000
  C   C42       1.0  0.54556  0.81499  0.26174  1.0000
  C   C43       1.0  0.55498  0.80488  0.34521  1.0000
  H   H41       1.0  0.52047  0.84286  0.20322  1.0000
  C   C44       1.0  0.55477  0.80492  0.17305  1.0000
  H   H42       1.0  0.54646  0.81539  0.11581  1.0000
  H   H43       1.0  0.54103  0.77517  0.16656  1.0000
  H   H44       1.0  0.58430  0.81606  0.16834  1.0000
  C   C45       1.0  0.17983  0.69478  0.26280  1.0000
  C   C46       1.0  0.19982  0.73354  0.26174  1.0000
  C   C47       1.0  0.20993  0.75307  0.34521  1.0000
  H   H45       1.0  0.17194  0.68058  0.20321  1.0000
  C   C48       1.0  0.20989  0.75282  0.17306  1.0000
  H   H46       1.0  0.19942  0.73404  0.11580  1.0000
  H   H47       1.0  0.23964  0.76882  0.16656  1.0000
  H   H48       1.0  0.19876  0.77121  0.16833  1.0000
  C   C49       1.0  0.50146  0.33648  0.34542  1.0000
  C   C50       1.0  0.47288  0.27816  0.26168  1.0000
  C   C51       1.0  0.49170  0.31691  0.26356  1.0000
  H   H49       1.0  0.49849  0.33124  0.20406  1.0000
  C   C52       1.0  0.46507  0.26066  0.17081  1.0000
  H   H50       1.0  0.44991  0.23084  0.17293  1.0000
  H   H51       1.0  0.49079  0.26911  0.13539  1.0000
  H   H52       1.0  0.44886  0.26937  0.13151  1.0000
  C   C53       1.0  0.84685  0.51334  0.34542  1.0000
  C   C54       1.0  0.81711  0.54192  0.26168  1.0000
  C   C55       1.0  0.83705  0.52310  0.26357  1.0000
  H   H53       1.0  0.84458  0.51631  0.20407  1.0000
  C   C56       1.0  0.80742  0.54973  0.17082  1.0000
  H   H54       1.0  0.79276  0.56489  0.17294  1.0000
  H   H55       1.0  0.79015  0.52401  0.13539  1.0000
  H   H56       1.0  0.83234  0.56594  0.13153  1.0000
  C   C57       1.0  0.67832  0.16796  0.34542  1.0000
  C   C58       1.0  0.73665  0.19769  0.26168  1.0000
  C   C59       1.0  0.69790  0.17776  0.26357  1.0000
  H   H57       1.0  0.68358  0.17023  0.20407  1.0000
  C   C60       1.0  0.75416  0.20738  0.17081  1.0000
  H   H58       1.0  0.78397  0.22203  0.17294  1.0000
  H   H59       1.0  0.74571  0.22464  0.13538  1.0000
  H   H60       1.0  0.74545  0.18245  0.13153  1.0000
  C   C61       1.0  0.15108  0.54835  0.34540  1.0000
  C   C62       1.0  0.16029  0.50301  0.26176  1.0000
  C   C63       1.0  0.15395  0.53296  0.26360  1.0000
  H   H61       1.0  0.15080  0.54348  0.20407  1.0000
  C   C64       1.0  0.16344  0.48964  0.17091  1.0000
  H   H62       1.0  0.16769  0.46621  0.17308  1.0000
  H   H63       1.0  0.18649  0.51160  0.13454  1.0000
  H   H64       1.0  0.13842  0.48145  0.13248  1.0000
  C   C65       1.0  0.46647  0.60569  0.34541  1.0000
  C   C66       1.0  0.51179  0.66024  0.26176  1.0000
  C   C67       1.0  0.48185  0.62395  0.26360  1.0000
  H   H65       1.0  0.47133  0.61028  0.20407  1.0000
  C   C68       1.0  0.52516  0.67676  0.17090  1.0000
  H   H66       1.0  0.54860  0.70445  0.17308  1.0000
  H   H67       1.0  0.50320  0.67784  0.13453  1.0000
  H   H68       1.0  0.53337  0.65994  0.13248  1.0000
  C   C69       1.0  0.40911  0.86376  0.34536  1.0000
  C   C70       1.0  0.35457  0.85452  0.26172  1.0000
  C   C71       1.0  0.39086  0.86086  0.26355  1.0000
  H   H69       1.0  0.40453  0.86402  0.20402  1.0000
  C   C72       1.0  0.33803  0.85135  0.17087  1.0000
  H   H70       1.0  0.31034  0.84709  0.17304  1.0000
  H   H71       1.0  0.33696  0.82831  0.13451  1.0000
  H   H72       1.0  0.35485  0.87637  0.13244  1.0000
  C   C73       1.0  0.53564  0.15021  0.26344  1.0000
  C   C74       1.0  0.50572  0.15660  0.26212  1.0000
  C   C75       1.0  0.49048  0.15963  0.34548  1.0000
  H   H73       1.0  0.54592  0.14675  0.20395  1.0000
  C   C76       1.0  0.49082  0.15962  0.17332  1.0000
  H   H74       1.0  0.50502  0.15596  0.11617  1.0000
  H   H75       1.0  0.49342  0.18661  0.16681  1.0000
  H   H76       1.0  0.46193  0.13875  0.16843  1.0000
  C   C77       1.0  0.62641  0.47916  0.26344  1.0000
  C   C78       1.0  0.66272  0.50908  0.26211  1.0000
  C   C79       1.0  0.68099  0.52432  0.34547  1.0000
  H   H77       1.0  0.61267  0.46888  0.20394  1.0000
  C   C80       1.0  0.68064  0.52398  0.17332  1.0000
  H   H78       1.0  0.66278  0.50978  0.11617  1.0000
  H   H79       1.0  0.70503  0.52138  0.16681  1.0000
  H   H80       1.0  0.68866  0.55286  0.16842  1.0000
  C   C81       1.0  0.86459  0.38839  0.26343  1.0000
  C   C82       1.0  0.85820  0.35208  0.26211  1.0000
  C   C83       1.0  0.85517  0.33381  0.34547  1.0000
  H   H81       1.0  0.86805  0.40213  0.20394  1.0000
  C   C84       1.0  0.85518  0.33416  0.17331  1.0000
  H   H82       1.0  0.85885  0.35202  0.11617  1.0000
  H   H83       1.0  0.82820  0.30977  0.16681  1.0000
  H   H84       1.0  0.87606  0.32615  0.16842  1.0000
  C   C85       1.0  0.98944  0.54028  0.26316  1.0000
  C   C86       1.0  0.02808  0.55930  0.26171  1.0000
  C   C87       1.0  0.04737  0.56841  0.34536  1.0000
  H   H85       1.0  0.97507  0.53240  0.20378  1.0000
  C   C88       1.0  0.04725  0.56812  0.17286  1.0000
  H   H86       1.0  0.02839  0.55956  0.11573  1.0000
  H   H87       1.0  0.06327  0.55438  0.16692  1.0000
  H   H88       1.0  0.06560  0.59763  0.16736  1.0000
  C   C89       1.0  0.47452  0.45211  0.26315  1.0000
  C   C90       1.0  0.45549  0.47174  0.26170  1.0000
  C   C91       1.0  0.44638  0.48191  0.34535  1.0000
  H   H89       1.0  0.48240  0.44562  0.20378  1.0000
  C   C92       1.0  0.44667  0.48207  0.17285  1.0000
  H   H90       1.0  0.45523  0.47178  0.11571  1.0000
  H   H91       1.0  0.46040  0.51184  0.16690  1.0000
  H   H92       1.0  0.41716  0.47091  0.16736  1.0000
  C   C93       1.0  0.56270  0.02537  0.26315  1.0000
  C   C94       1.0  0.54308  0.98673  0.26170  1.0000
  C   C95       1.0  0.53290  0.96744  0.34536  1.0000
  H   H93       1.0  0.56919  0.03974  0.20378  1.0000
  C   C96       1.0  0.53274  0.96756  0.17286  1.0000
  H   H94       1.0  0.54303  0.98641  0.11572  1.0000
  H   H95       1.0  0.50298  0.95153  0.16691  1.0000
  H   H96       1.0  0.54390  0.94920  0.16736  1.0000
  C   C97       1.0  0.00888  0.04008  0.34433  1.0000
  C   C98       1.0  0.04220  0.03923  0.34446  1.0000
  C   C99       1.0  0.04305  0.00592  0.34432  1.0000
  C   C100      1.0  0.00889  0.97261  0.34445  1.0000
  C   C101      1.0  0.97472  0.97175  0.34432  1.0000
  C   C102      1.0  0.97557  0.00592  0.34446  1.0000
  H   H97       1.0  0.00889  0.94832  0.34475  1.0000
  H   H98       1.0  0.95127  0.00591  0.34476  1.0000
  H   H99       1.0  0.06649  0.06353  0.34475  1.0000
  C   C103      1.0  0.04278  0.24627  0.34538  1.0000
  C   C104      1.0  0.00897  0.24563  0.34514  1.0000
  C   C105      1.0  0.97513  0.21249  0.34478  1.0000
  C   C106      1.0  0.97556  0.17899  0.34457  1.0000
  C   C107      1.0  0.00890  0.17814  0.34487  1.0000
  C   C108      1.0  0.04228  0.21230  0.34532  1.0000
  H   H100      1.0  0.95115  0.15483  0.34449  1.0000
  H   H101      1.0  0.06667  0.21251  0.34533  1.0000
  H   H102      1.0  0.00899  0.26999  0.34521  1.0000
  C   C109      1.0  0.76854  0.79947  0.34540  1.0000
  C   C110      1.0  0.76918  0.76630  0.34514  1.0000
  C   C111      1.0  0.80231  0.76559  0.34478  1.0000
  C   C112      1.0  0.83582  0.79953  0.34459  1.0000
  C   C113      1.0  0.83667  0.83373  0.34488  1.0000
  C   C114      1.0  0.80251  0.83294  0.34532  1.0000
  H   H103      1.0  0.85997  0.79927  0.34451  1.0000
  H   H104      1.0  0.80229  0.85712  0.34532  1.0000
  H   H105      1.0  0.74481  0.74196  0.34521  1.0000
  C   C115      1.0  0.21534  0.97203  0.34540  1.0000
  C   C116      1.0  0.24851  0.00583  0.34515  1.0000
  C   C117      1.0  0.24921  0.03968  0.34477  1.0000
  C   C118      1.0  0.21527  0.03924  0.34457  1.0000
  C   C119      1.0  0.18108  0.00590  0.34486  1.0000
  C   C120      1.0  0.18187  0.97252  0.34532  1.0000
  H   H106      1.0  0.21553  0.06365  0.34448  1.0000
  H   H107      1.0  0.15769  0.94813  0.34533  1.0000
  H   H108      1.0  0.27285  0.00581  0.34523  1.0000
  C   C121      1.0  0.17329  0.46000  0.34548  1.0000
  C   C122      1.0  0.21094  0.47152  0.34521  1.0000
  C   C123      1.0  0.22318  0.44594  0.34490  1.0000
  C   C124      1.0  0.19703  0.40803  0.34500  1.0000
  C   C125      1.0  0.15894  0.39561  0.34533  1.0000
  C   C126      1.0  0.14747  0.42202  0.34548  1.0000
  H   H109      1.0  0.20585  0.38937  0.34496  1.0000
  H   H110      1.0  0.12008  0.41359  0.34547  1.0000
  H   H111      1.0  0.22976  0.49903  0.34515  1.0000
  C   C127      1.0  0.55480  0.71625  0.34549  1.0000
  C   C128      1.0  0.54329  0.74238  0.34522  1.0000
  C   C129      1.0  0.56887  0.78021  0.34491  1.0000
  C   C130      1.0  0.60678  0.79196  0.34501  1.0000
  C   C131      1.0  0.61919  0.76629  0.34533  1.0000
  C   C132      1.0  0.59278  0.72841  0.34548  1.0000
  H   H112      1.0  0.62543  0.81943  0.34495  1.0000
  H   H113      1.0  0.60121  0.70945  0.34547  1.0000
  H   H114      1.0  0.51578  0.73370  0.34516  1.0000
  C   C133      1.0  0.29856  0.84152  0.34546  1.0000
  C   C134      1.0  0.27243  0.80387  0.34521  1.0000
  C   C135      1.0  0.23460  0.79162  0.34492  1.0000
  C   C136      1.0  0.22285  0.81778  0.34502  1.0000
  C   C137      1.0  0.24851  0.85587  0.34533  1.0000
  C   C138      1.0  0.28640  0.86733  0.34546  1.0000
  H   H115      1.0  0.19538  0.80896  0.34498  1.0000
  H   H116      1.0  0.30536  0.89473  0.34545  1.0000
  H   H117      1.0  0.28111  0.78504  0.34514  1.0000
  C   C139      1.0  0.46303  0.16996  0.34496  1.0000
  C   C140      1.0  0.47455  0.20761  0.34510  1.0000
  C   C141      1.0  0.44897  0.21986  0.34528  1.0000
  C   C142      1.0  0.41106  0.19370  0.34519  1.0000
  C   C143      1.0  0.39864  0.15562  0.34502  1.0000
  C   C144      1.0  0.42505  0.14415  0.34498  1.0000
  H   H118      1.0  0.39241  0.20252  0.34515  1.0000
  H   H119      1.0  0.41662  0.11675  0.34505  1.0000
  H   H120      1.0  0.50206  0.22644  0.34513  1.0000
  C   C145      1.0  0.71876  0.55176  0.34496  1.0000
  C   C146      1.0  0.74490  0.54025  0.34511  1.0000
  C   C147      1.0  0.78272  0.56583  0.34529  1.0000
  C   C148      1.0  0.79448  0.60373  0.34520  1.0000
  C   C149      1.0  0.76882  0.61616  0.34502  1.0000
  C   C150      1.0  0.73093  0.58974  0.34498  1.0000
  H   H121      1.0  0.82195  0.62239  0.34517  1.0000
  H   H122      1.0  0.71198  0.59818  0.34504  1.0000
  H   H123      1.0  0.73622  0.51274  0.34514  1.0000
  C   C151      1.0  0.84484  0.29604  0.34496  1.0000
  C   C152      1.0  0.80720  0.26990  0.34511  1.0000
  C   C153      1.0  0.79495  0.23208  0.34529  1.0000
  C   C154      1.0  0.82110  0.22032  0.34520  1.0000
  C   C155      1.0  0.85919  0.24598  0.34502  1.0000
  C   C156      1.0  0.87065  0.28387  0.34498  1.0000
  H   H124      1.0  0.81228  0.19285  0.34516  1.0000
  H   H125      1.0  0.89805  0.30283  0.34504  1.0000
  H   H126      1.0  0.78836  0.27858  0.34513  1.0000
  C   C157      1.0  0.08576  0.58346  0.34470  1.0000
  C   C158      1.0  0.10026  0.55977  0.34550  1.0000
  C   C159      1.0  0.13844  0.57382  0.34523  1.0000
  C   C160      1.0  0.16220  0.61227  0.34462  1.0000
  C   C161      1.0  0.14786  0.63636  0.34415  1.0000
  C   C162      1.0  0.10954  0.62164  0.34411  1.0000
  H   H127      1.0  0.18996  0.62272  0.34462  1.0000
  H   H128      1.0  0.09881  0.63876  0.34399  1.0000
  H   H129      1.0  0.08277  0.53195  0.34602  1.0000
  C   C163      1.0  0.43134  0.50526  0.34471  1.0000
  C   C164      1.0  0.45504  0.54345  0.34550  1.0000
  C   C165      1.0  0.44099  0.56757  0.34523  1.0000
  C   C166      1.0  0.40254  0.55289  0.34463  1.0000
  C   C167      1.0  0.37844  0.51447  0.34415  1.0000
  C   C168      1.0  0.39315  0.49086  0.34412  1.0000
  H   H130      1.0  0.39209  0.57021  0.34463  1.0000
  H   H131      1.0  0.37603  0.46301  0.34399  1.0000
  H   H132      1.0  0.48285  0.55376  0.34602  1.0000
  C   C169      1.0  0.50955  0.92905  0.34472  1.0000
  C   C170      1.0  0.47135  0.91456  0.34550  1.0000
  C   C171      1.0  0.44723  0.87639  0.34523  1.0000
  C   C172      1.0  0.46190  0.85262  0.34462  1.0000
  C   C173      1.0  0.50033  0.86694  0.34415  1.0000
  C   C174      1.0  0.52394  0.90526  0.34414  1.0000
  H   H133      1.0  0.44458  0.82485  0.34461  1.0000
  H   H134      1.0  0.55180  0.91599  0.34401  1.0000
  H   H135      1.0  0.46105  0.93206  0.34601  1.0000
  C   C175      1.0  0.58696  0.08288  0.34521  1.0000
  C   C176      1.0  0.56316  0.09726  0.34508  1.0000
  C   C177      1.0  0.57709  0.13542  0.34510  1.0000
  C   C178      1.0  0.61553  0.15927  0.34527  1.0000
  C   C179      1.0  0.63971  0.14505  0.34544  1.0000
  C   C180      1.0  0.62511  0.10674  0.34539  1.0000
  H   H136      1.0  0.62590  0.18703  0.34527  1.0000
  H   H137      1.0  0.64231  0.09609  0.34546  1.0000
  H   H138      1.0  0.53536  0.07970  0.34498  1.0000
  C   C181      1.0  0.50776  0.42786  0.34520  1.0000
  C   C182      1.0  0.54594  0.45165  0.34507  1.0000
  C   C183      1.0  0.57016  0.43770  0.34509  1.0000
  C   C184      1.0  0.55558  0.39927  0.34526  1.0000
  C   C185      1.0  0.51717  0.37509  0.34543  1.0000
  C   C186      1.0  0.49346  0.38970  0.34539  1.0000
  H   H139      1.0  0.57296  0.38890  0.34527  1.0000
  H   H140      1.0  0.46562  0.37251  0.34546  1.0000
  H   H141      1.0  0.55619  0.47945  0.34498  1.0000
  C   C187      1.0  0.93193  0.50704  0.34519  1.0000
  C   C188      1.0  0.91754  0.46885  0.34506  1.0000
  C   C189      1.0  0.87938  0.44464  0.34509  1.0000
  C   C190      1.0  0.85553  0.45922  0.34526  1.0000
  C   C191      1.0  0.86976  0.49763  0.34543  1.0000
  C   C192      1.0  0.90807  0.52134  0.34538  1.0000
  H   H142      1.0  0.82777  0.44184  0.34526  1.0000
  H   H143      1.0  0.91872  0.54918  0.34546  1.0000
  H   H144      1.0  0.93510  0.45861  0.34497  1.0000
  C   C193      1.0  0.00888  0.14377  0.34484  1.0000
  C   C194      1.0  0.00896  0.09235  0.42753  1.0000
  C   C195      1.0  0.00898  0.12617  0.42584  1.0000
  H   H145      1.0  0.00905  0.13844  0.48560  1.0000
  C   C196      1.0  0.00903  0.07726  0.51841  1.0000
  H   H146      1.0  0.00901  0.05142  0.51640  1.0000
  H   H147      1.0  0.98478  0.07261  0.55589  1.0000
  H   H148      1.0  0.03337  0.09687  0.55562  1.0000
  C   C197      1.0  0.87103  0.86806  0.34484  1.0000
  C   C198      1.0  0.92246  0.91957  0.42753  1.0000
  C   C199      1.0  0.88863  0.88576  0.42584  1.0000
  H   H149      1.0  0.87637  0.87357  0.48561  1.0000
  C   C200      1.0  0.93754  0.93473  0.51841  1.0000
  H   H150      1.0  0.96338  0.96054  0.51640  1.0000
  H   H151      1.0  0.94220  0.91513  0.55589  1.0000
  H   H152      1.0  0.91794  0.93946  0.55562  1.0000
  C   C201      1.0  0.14674  0.00592  0.34483  1.0000
  C   C202      1.0  0.09524  0.00584  0.42752  1.0000
  C   C203      1.0  0.12904  0.00583  0.42584  1.0000
  H   H153      1.0  0.14124  0.00576  0.48560  1.0000
  C   C204      1.0  0.08008  0.00577  0.51841  1.0000
  H   H154      1.0  0.05427  0.00579  0.51640  1.0000
  H   H155      1.0  0.09967  0.03002  0.55589  1.0000
  H   H156      1.0  0.07535  0.98143  0.55562  1.0000
  C   C205      1.0  0.11852  0.33795  0.42656  1.0000
  C   C206      1.0  0.09031  0.30065  0.42781  1.0000
  C   C207      1.0  0.07572  0.28153  0.34484  1.0000
  H   H157      1.0  0.12844  0.35172  0.48615  1.0000
  C   C208      1.0  0.07586  0.28257  0.51667  1.0000
  H   H158      1.0  0.09031  0.30035  0.57375  1.0000
  H   H159      1.0  0.07863  0.25825  0.52203  1.0000
  H   H160      1.0  0.04697  0.27440  0.52285  1.0000
  C   C209      1.0  0.67686  0.78352  0.42655  1.0000
  C   C210      1.0  0.71416  0.79261  0.42779  1.0000
  C   C211      1.0  0.73327  0.79715  0.34481  1.0000
  H   H161      1.0  0.66308  0.77966  0.48614  1.0000
  C   C212      1.0  0.73224  0.79624  0.51665  1.0000
  H   H162      1.0  0.71445  0.79290  0.57374  1.0000
  H   H163      1.0  0.75655  0.82333  0.52202  1.0000
  H   H164      1.0  0.74040  0.77551  0.52283  1.0000
  C   C213      1.0  0.23127  0.89628  0.42658  1.0000
  C   C214      1.0  0.22218  0.92449  0.42785  1.0000
  C   C215      1.0  0.21767  0.93908  0.34488  1.0000
  H   H165      1.0  0.23512  0.88636  0.48617  1.0000
  C   C216      1.0  0.21854  0.93893  0.51670  1.0000
  H   H166      1.0  0.22187  0.92448  0.57378  1.0000
  H   H167      1.0  0.19145  0.93616  0.52205  1.0000
  H   H168      1.0  0.23926  0.96782  0.52289  1.0000
  C   C217      1.0  0.36037  0.12919  0.34509  1.0000
  C   C218      1.0  0.30391  0.08671  0.42826  1.0000
  C   C219      1.0  0.34127  0.11473  0.42655  1.0000
  H   H169      1.0  0.35523  0.12426  0.48613  1.0000
  C   C220      1.0  0.28752  0.07304  0.51905  1.0000
  H   H170      1.0  0.25859  0.05233  0.51697  1.0000
  H   H171      1.0  0.29004  0.09579  0.55968  1.0000
  H   H172      1.0  0.30209  0.06112  0.55303  1.0000
  C   C221      1.0  0.78066  0.65443  0.34509  1.0000
  C   C222      1.0  0.79464  0.71089  0.42824  1.0000
  C   C223      1.0  0.78529  0.67353  0.42654  1.0000
  H   H173      1.0  0.78086  0.65957  0.48613  1.0000
  C   C224      1.0  0.79735  0.72727  0.51904  1.0000
  H   H174      1.0  0.80557  0.75621  0.51696  1.0000
  H   H175      1.0  0.81758  0.72475  0.55968  1.0000
  H   H176      1.0  0.77085  0.71271  0.55300  1.0000
  C   C225      1.0  0.88561  0.23414  0.34509  1.0000
  C   C226      1.0  0.92810  0.22017  0.42824  1.0000
  C   C227      1.0  0.90009  0.22951  0.42654  1.0000
  H   H177      1.0  0.89056  0.23394  0.48612  1.0000
  C   C228      1.0  0.94177  0.21745  0.51904  1.0000
  H   H178      1.0  0.96248  0.20923  0.51696  1.0000
  H   H179      1.0  0.91902  0.19723  0.55968  1.0000
  H   H180      1.0  0.95370  0.24395  0.55299  1.0000
  C   C229      1.0  0.33982  0.49866  0.34430  1.0000
  C   C230      1.0  0.28154  0.46996  0.42829  1.0000
  C   C231      1.0  0.32030  0.48889  0.42622  1.0000
  H   H181      1.0  0.33467  0.49575  0.48567  1.0000
  C   C232      1.0  0.26410  0.46213  0.51922  1.0000
  H   H182      1.0  0.23428  0.44687  0.51721  1.0000
  H   H183      1.0  0.27248  0.48785  0.55457  1.0000
  H   H184      1.0  0.27293  0.44602  0.55852  1.0000
  C   C233      1.0  0.51614  0.84413  0.34430  1.0000
  C   C234      1.0  0.54484  0.81455  0.42828  1.0000
  C   C235      1.0  0.52591  0.83437  0.42622  1.0000
  H   H185      1.0  0.51904  0.84188  0.48567  1.0000
  C   C236      1.0  0.55266  0.80493  0.51922  1.0000
  H   H186      1.0  0.56793  0.79038  0.51721  1.0000
  H   H187      1.0  0.52694  0.78758  0.55456  1.0000
  H   H188      1.0  0.56876  0.82987  0.55852  1.0000
  C   C237      1.0  0.17066  0.67499  0.34430  1.0000
  C   C238      1.0  0.20026  0.73325  0.42829  1.0000
  C   C239      1.0  0.18043  0.69450  0.42624  1.0000
  H   H189      1.0  0.17293  0.68013  0.48568  1.0000
  C   C240      1.0  0.20989  0.75070  0.51922  1.0000
  H   H190      1.0  0.22444  0.78052  0.51722  1.0000
  H   H191      1.0  0.22724  0.74232  0.55454  1.0000
  H   H192      1.0  0.18496  0.74187  0.55854  1.0000
  C   C241      1.0  0.49095  0.31674  0.42700  1.0000
  C   C242      1.0  0.47227  0.27798  0.42822  1.0000
  C   C243      1.0  0.46284  0.25840  0.34484  1.0000
  H   H193      1.0  0.49727  0.33098  0.48653  1.0000
  C   C244      1.0  0.46318  0.25877  0.51699  1.0000
  H   H194      1.0  0.47148  0.27759  0.57417  1.0000
  H   H195      1.0  0.47699  0.24284  0.52349  1.0000
  H   H196      1.0  0.43366  0.24032  0.52185  1.0000
  C   C245      1.0  0.83763  0.52385  0.42702  1.0000
  C   C246      1.0  0.81755  0.54253  0.42825  1.0000
  C   C247      1.0  0.80740  0.55195  0.34486  1.0000
  H   H197      1.0  0.84554  0.51752  0.48654  1.0000
  C   C248      1.0  0.80744  0.55162  0.51701  1.0000
  H   H198      1.0  0.81795  0.54332  0.57419  1.0000
  H   H199      1.0  0.77769  0.53781  0.52351  1.0000
  H   H200      1.0  0.81849  0.58114  0.52187  1.0000
  C   C249      1.0  0.69807  0.17718  0.42700  1.0000
  C   C250      1.0  0.73682  0.19725  0.42824  1.0000
  C   C251      1.0  0.75640  0.20740  0.34485  1.0000
  H   H201      1.0  0.68383  0.16926  0.48653  1.0000
  C   C252      1.0  0.75603  0.20736  0.51700  1.0000
  H   H202      1.0  0.73721  0.19685  0.57418  1.0000
  H   H203      1.0  0.77197  0.23711  0.52351  1.0000
  H   H204      1.0  0.77448  0.19630  0.52186  1.0000
  C   C253      1.0  0.15338  0.53250  0.42701  1.0000
  C   C254      1.0  0.15985  0.50264  0.42833  1.0000
  C   C255      1.0  0.16295  0.48744  0.34498  1.0000
  H   H205      1.0  0.14985  0.54274  0.48649  1.0000
  C   C256      1.0  0.16291  0.48775  0.51713  1.0000
  H   H206      1.0  0.15921  0.50194  0.57427  1.0000
  H   H207      1.0  0.18992  0.49040  0.52363  1.0000
  H   H208      1.0  0.14208  0.45886  0.52202  1.0000
  C   C257      1.0  0.48231  0.62384  0.42702  1.0000
  C   C258      1.0  0.51217  0.66018  0.42834  1.0000
  C   C259      1.0  0.52736  0.67847  0.34497  1.0000
  H   H209      1.0  0.47207  0.61007  0.48649  1.0000
  C   C260      1.0  0.52705  0.67812  0.51713  1.0000
  H   H210      1.0  0.51287  0.66024  0.57428  1.0000
  H   H211      1.0  0.52440  0.70248  0.52363  1.0000
  H   H212      1.0  0.55595  0.68619  0.52203  1.0000
  C   C261      1.0  0.39097  0.86145  0.42698  1.0000
  C   C262      1.0  0.35463  0.85495  0.42831  1.0000
  C   C263      1.0  0.33634  0.85186  0.34494  1.0000
  H   H213      1.0  0.40474  0.86497  0.48646  1.0000
  C   C264      1.0  0.33669  0.85189  0.51711  1.0000
  H   H214      1.0  0.35456  0.85559  0.57425  1.0000
  H   H215      1.0  0.31233  0.82488  0.52359  1.0000
  H   H216      1.0  0.32862  0.87272  0.52200  1.0000
  C   C265      1.0  0.55152  0.14795  0.34503  1.0000
  C   C266      1.0  0.50608  0.15700  0.42867  1.0000
  C   C267      1.0  0.53608  0.15074  0.42682  1.0000
  H   H217      1.0  0.54662  0.14762  0.48635  1.0000
  C   C268      1.0  0.49268  0.16011  0.51953  1.0000
  H   H218      1.0  0.46922  0.16431  0.51736  1.0000
  H   H219      1.0  0.51462  0.18317  0.55591  1.0000
  H   H220      1.0  0.48453  0.13509  0.55793  1.0000
  C   C269      1.0  0.60826  0.46327  0.34502  1.0000
  C   C270      1.0  0.66276  0.50872  0.42867  1.0000
  C   C271      1.0  0.62650  0.47872  0.42681  1.0000
  H   H221      1.0  0.61284  0.46818  0.48634  1.0000
  C   C272      1.0  0.67926  0.52211  0.51953  1.0000
  H   H222      1.0  0.70693  0.54558  0.51736  1.0000
  H   H223      1.0  0.68039  0.50018  0.55591  1.0000
  H   H224      1.0  0.66240  0.53027  0.55792  1.0000
  C   C273      1.0  0.86685  0.40654  0.34502  1.0000
  C   C274      1.0  0.85780  0.35204  0.42867  1.0000
  C   C275      1.0  0.86405  0.38830  0.42680  1.0000
  H   H225      1.0  0.86718  0.40196  0.48633  1.0000
  C   C276      1.0  0.85469  0.33554  0.51953  1.0000
  H   H226      1.0  0.85050  0.30787  0.51736  1.0000
  H   H227      1.0  0.83164  0.33441  0.55591  1.0000
  H   H228      1.0  0.87971  0.35240  0.55792  1.0000
  C   C277      1.0  0.97012  0.53033  0.34523  1.0000
  C   C278      1.0  0.02807  0.55884  0.42901  1.0000
  C   C279      1.0  0.98943  0.53975  0.42731  1.0000
  H   H229      1.0  0.97509  0.53153  0.48675  1.0000
  C   C280      1.0  0.04571  0.56652  0.51973  1.0000
  H   H230      1.0  0.07552  0.58183  0.51738  1.0000
  H   H231      1.0  0.03745  0.54075  0.55472  1.0000
  H   H232      1.0  0.03692  0.58253  0.55958  1.0000
  C   C281      1.0  0.48447  0.44275  0.34523  1.0000
  C   C282      1.0  0.45595  0.47219  0.42901  1.0000
  C   C283      1.0  0.47505  0.45264  0.42731  1.0000
  H   H233      1.0  0.48326  0.44651  0.48676  1.0000
  C   C284      1.0  0.44827  0.48214  0.51972  1.0000
  H   H234      1.0  0.43295  0.49664  0.51737  1.0000
  H   H235      1.0  0.47403  0.49965  0.55472  1.0000
  H   H236      1.0  0.43226  0.45734  0.55957  1.0000
  C   C285      1.0  0.57207  0.04469  0.34522  1.0000
  C   C286      1.0  0.54263  0.98674  0.42901  1.0000
  C   C287      1.0  0.56217  0.02538  0.42731  1.0000
  H   H237      1.0  0.56830  0.03972  0.48675  1.0000
  C   C288      1.0  0.53267  0.96910  0.51973  1.0000
  H   H238      1.0  0.51817  0.93928  0.51738  1.0000
  H   H239      1.0  0.51516  0.97736  0.55472  1.0000
  H   H240      1.0  0.55747  0.97789  0.55958  1.0000
