data_image0
_chemical_formula_structural       C17H11C3NC3H5CH3C8H5CNH2C3NCNC2H2C17H11C3NC3H5CH3C8H5CNH2C3NCNC2H2C17H11C3NC3H5CH3C8H5CNH2C3NCNC2H2C17H11C3NC3H5CH3C8H5CNH2C3NCNC2H2C17H11C3NC3H5CH3C8H5CNH2C3NCNC2H2C17H11C3NC3H5CH3C8H5CNH2C3NCNC2H2C17H11C3NC3H5CH3C8H5CNH2C3NCNC2H2C17H11C3NC3H5CH3C8H5CNH2C3NCNC2H2C17H11C3NC3H5CH3C8H5CNH2C3NCNC2H2
_chemical_formula_sum              "C351 H252 N36"
_cell_length_a       36.1775
_cell_length_b       36.1781
_cell_length_c       15.0776
_cell_angle_alpha    90
_cell_angle_beta     90
_cell_angle_gamma    89.9298

_space_group_name_H-M_alt    "P 1"
_space_group_IT_number       1

loop_
  _space_group_symop_operation_xyz
  'x, y, z'

loop_
  _atom_site_type_symbol
  _atom_site_label
  _atom_site_symmetry_multiplicity
  _atom_site_fract_x
  _atom_site_fract_y
  _atom_site_fract_z
  _atom_site_occupancy
  C   C1        1.0  0.99352  0.23329  0.26863  1.0000
  C   C2        1.0  0.02743  0.25081  0.25034  1.0000
  C   C3        1.0  0.02817  0.28241  0.19669  1.0000
  C   C4        1.0  0.99543  0.29719  0.15854  1.0000
  C   C5        1.0  0.29469  0.28152  0.18636  1.0000
  C   C6        1.0  0.29365  0.24954  0.23906  1.0000
  C   C7        1.0  0.99693  0.99893  0.10327  1.0000
  C   C8        1.0  0.99829  0.02690  0.17858  1.0000
  C   C9        1.0  0.29895  0.03805  0.22348  1.0000
  C   C10       1.0  0.29984  0.06507  0.29034  1.0000
  C   C11       1.0  0.00046  0.08117  0.31524  1.0000
  C   C12       1.0  0.03359  0.06499  0.28425  1.0000
  C   C13       1.0  0.03233  0.03855  0.21619  1.0000
  C   C14       1.0  0.02892  0.00104  0.03803  1.0000
  C   C15       1.0  0.29875  0.33718  0.03757  1.0000
  C   C16       1.0  0.28474  0.03930  0.01510  1.0000
  C   C17       1.0  0.04191  0.03572  0.00678  1.0000
  H   H1        1.0  0.29376  0.06236  0.04756  1.0000
  H   H2        1.0  0.03345  0.27663  0.01164  1.0000
  H   H3        1.0  0.03164  0.05980  0.03236  1.0000
  H   H4        1.0  0.05691  0.02994  0.18994  1.0000
  H   H5        1.0  0.05851  0.07737  0.29693  1.0000
  H   H6        1.0  0.27536  0.07713  0.30878  1.0000
  H   H7        1.0  0.27366  0.02907  0.20230  1.0000
  H   H8        1.0  0.27010  0.29214  0.16477  1.0000
  H   H9        1.0  0.05341  0.29351  0.18198  1.0000
  H   H10       1.0  0.05197  0.23859  0.26752  1.0000
  H   H11       1.0  0.26884  0.23655  0.24883  1.0000
  C   C18       1.0  0.00060  0.17058  0.21265  1.0000
  C   C19       1.0  0.32742  0.19506  0.28438  1.0000
  C   C20       1.0  0.33370  0.11987  0.31321  1.0000
  N   N1        1.0  0.00370  0.13434  0.23077  1.0000
  C   C21       1.0  0.00522  0.18156  0.11846  1.0000
  C   C22       1.0  0.32354  0.15668  0.04372  1.0000
  C   C23       1.0  0.30326  0.19245  0.06769  1.0000
  H   H12       1.0  0.02948  0.19787  0.10058  1.0000
  H   H13       1.0  0.30597  0.21437  0.01850  1.0000
  H   H14       1.0  0.27666  0.18826  0.10047  1.0000
  H   H15       1.0  0.30905  0.13141  0.06266  1.0000
  H   H16       1.0  0.13584  0.33271  0.04245  1.0000
  C   C24       1.0  0.13981  0.33050  0.31937  1.0000
  H   H17       1.0  0.07924  0.32212  0.33576  1.0000
  H   H18       1.0  0.16432  0.31305  0.32540  1.0000
  H   H19       1.0  0.13434  0.34464  0.25676  1.0000
  C   C25       1.0  0.25600  0.04355  0.62008  1.0000
  C   C26       1.0  0.24135  0.34577  0.57609  1.0000
  C   C27       1.0  0.25825  0.31101  0.58864  1.0000
  C   C28       1.0  0.28664  0.30705  0.65127  1.0000
  C   C29       1.0  0.04301  0.30231  0.66201  1.0000
  C   C30       1.0  0.07263  0.30440  0.60224  1.0000
  C   C31       1.0  0.08831  0.00566  0.58121  1.0000
  C   C32       1.0  0.07146  0.03814  0.61352  1.0000
  H   H20       1.0  0.24302  0.06869  0.61582  1.0000
  H   H21       1.0  0.24676  0.28756  0.56236  1.0000
  H   H22       1.0  0.29694  0.28115  0.66176  1.0000
  H   H23       1.0  0.08550  0.28038  0.58358  1.0000
  H   H24       1.0  0.08356  0.06339  0.60344  1.0000
  C   C33       1.0  0.32327  0.17980  0.37014  1.0000
  N   N2        1.0  0.32583  0.14261  0.38233  1.0000
  H   H25       1.0  0.31818  0.19638  0.42369  1.0000
  H   H26       1.0  0.33862  0.15742  0.64779  1.0000
  C   C34       1.0  0.14604  0.01215  0.48904  1.0000
  C   C35       1.0  0.12686  0.33986  0.56997  1.0000
  C   C36       1.0  0.14789  0.33657  0.64837  1.0000
  N   N3        1.0  0.18481  0.33910  0.64481  1.0000
  C   C37       1.0  0.20295  0.34487  0.56757  1.0000
  N   N4        1.0  0.18368  0.01460  0.49052  1.0000
  C   C38       1.0  0.12657  0.01720  0.40366  1.0000
  C   C39       1.0  0.10553  0.31655  0.36851  1.0000
  H   H27       1.0  0.11174  0.04313  0.39316  1.0000
  H   H28       1.0  0.10940  0.29022  0.40273  1.0000
  C   C40       1.0  0.99352  0.56662  0.26863  1.0000
  C   C41       1.0  0.02743  0.58415  0.25034  1.0000
  C   C42       1.0  0.02817  0.61575  0.19669  1.0000
  C   C43       1.0  0.99543  0.63052  0.15854  1.0000
  C   C44       1.0  0.29469  0.61485  0.18636  1.0000
  C   C45       1.0  0.29365  0.58288  0.23906  1.0000
  C   C46       1.0  0.99693  0.33227  0.10327  1.0000
  C   C47       1.0  0.99829  0.36023  0.17858  1.0000
  C   C48       1.0  0.29895  0.37139  0.22348  1.0000
  C   C49       1.0  0.29984  0.39840  0.29034  1.0000
  C   C50       1.0  0.00046  0.41451  0.31524  1.0000
  C   C51       1.0  0.03359  0.39832  0.28425  1.0000
  C   C52       1.0  0.03233  0.37189  0.21619  1.0000
  C   C53       1.0  0.02892  0.33437  0.03803  1.0000
  C   C54       1.0  0.29875  0.67051  0.03757  1.0000
  C   C55       1.0  0.28474  0.37263  0.01510  1.0000
  C   C56       1.0  0.04191  0.36906  0.00678  1.0000
  H   H29       1.0  0.29376  0.39569  0.04756  1.0000
  H   H30       1.0  0.03345  0.60997  0.01164  1.0000
  H   H31       1.0  0.03164  0.39314  0.03236  1.0000
  H   H32       1.0  0.05691  0.36327  0.18994  1.0000
  H   H33       1.0  0.05850  0.41070  0.29693  1.0000
  H   H34       1.0  0.27536  0.41047  0.30878  1.0000
  H   H35       1.0  0.27366  0.36241  0.20230  1.0000
  H   H36       1.0  0.27010  0.62547  0.16477  1.0000
  H   H37       1.0  0.05341  0.62684  0.18198  1.0000
  H   H38       1.0  0.05197  0.57193  0.26752  1.0000
  H   H39       1.0  0.26884  0.56988  0.24883  1.0000
  C   C57       1.0  0.00060  0.50392  0.21265  1.0000
  C   C58       1.0  0.32742  0.52840  0.28438  1.0000
  C   C59       1.0  0.33370  0.45321  0.31321  1.0000
  N   N5        1.0  0.00370  0.46767  0.23077  1.0000
  C   C60       1.0  0.00522  0.51489  0.11846  1.0000
  C   C61       1.0  0.32354  0.49002  0.04372  1.0000
  C   C62       1.0  0.30326  0.52578  0.06769  1.0000
  H   H40       1.0  0.02948  0.53121  0.10058  1.0000
  H   H41       1.0  0.30597  0.54771  0.01850  1.0000
  H   H42       1.0  0.27667  0.52160  0.10047  1.0000
  H   H43       1.0  0.30905  0.46475  0.06266  1.0000
  H   H44       1.0  0.13584  0.66604  0.04245  1.0000
  C   C63       1.0  0.13981  0.66383  0.31937  1.0000
  H   H45       1.0  0.07924  0.65545  0.33576  1.0000
  H   H46       1.0  0.16432  0.64638  0.32540  1.0000
  H   H47       1.0  0.13434  0.67798  0.25676  1.0000
  C   C64       1.0  0.25600  0.37689  0.62008  1.0000
  C   C65       1.0  0.24135  0.67910  0.57609  1.0000
  C   C66       1.0  0.25825  0.64435  0.58864  1.0000
  C   C67       1.0  0.28665  0.64038  0.65127  1.0000
  C   C68       1.0  0.04301  0.63565  0.66201  1.0000
  C   C69       1.0  0.07263  0.63773  0.60224  1.0000
  C   C70       1.0  0.08831  0.33899  0.58121  1.0000
  C   C71       1.0  0.07146  0.37147  0.61352  1.0000
  H   H48       1.0  0.24302  0.40203  0.61582  1.0000
  H   H49       1.0  0.24676  0.62089  0.56236  1.0000
  H   H50       1.0  0.29694  0.61448  0.66176  1.0000
  H   H51       1.0  0.08550  0.61371  0.58358  1.0000
  H   H52       1.0  0.08356  0.39672  0.60344  1.0000
  C   C72       1.0  0.32327  0.51314  0.37014  1.0000
  N   N6        1.0  0.32583  0.47595  0.38233  1.0000
  H   H53       1.0  0.31818  0.52971  0.42369  1.0000
  H   H54       1.0  0.33862  0.49075  0.64779  1.0000
  C   C73       1.0  0.14604  0.34548  0.48904  1.0000
  C   C74       1.0  0.12686  0.67319  0.56997  1.0000
  C   C75       1.0  0.14789  0.66991  0.64837  1.0000
  N   N7        1.0  0.18481  0.67243  0.64481  1.0000
  C   C76       1.0  0.20295  0.67821  0.56757  1.0000
  N   N8        1.0  0.18368  0.34793  0.49052  1.0000
  C   C77       1.0  0.12657  0.35053  0.40366  1.0000
  C   C78       1.0  0.10553  0.64989  0.36851  1.0000
  H   H55       1.0  0.11174  0.37647  0.39316  1.0000
  H   H56       1.0  0.10940  0.62355  0.40273  1.0000
  C   C79       1.0  0.99352  0.89996  0.26863  1.0000
  C   C80       1.0  0.02743  0.91748  0.25034  1.0000
  C   C81       1.0  0.02817  0.94908  0.19669  1.0000
  C   C82       1.0  0.99543  0.96386  0.15854  1.0000
  C   C83       1.0  0.29469  0.94818  0.18636  1.0000
  C   C84       1.0  0.29365  0.91621  0.23906  1.0000
  C   C85       1.0  0.99693  0.66560  0.10327  1.0000
  C   C86       1.0  0.99829  0.69357  0.17858  1.0000
  C   C87       1.0  0.29895  0.70472  0.22348  1.0000
  C   C88       1.0  0.29984  0.73173  0.29034  1.0000
  C   C89       1.0  0.00045  0.74784  0.31524  1.0000
  C   C90       1.0  0.03359  0.73166  0.28425  1.0000
  C   C91       1.0  0.03233  0.70522  0.21619  1.0000
  C   C92       1.0  0.02892  0.66771  0.03803  1.0000
  C   C93       1.0  0.29875  0.00384  0.03757  1.0000
  C   C94       1.0  0.28474  0.70597  0.01510  1.0000
  C   C95       1.0  0.04191  0.70239  0.00678  1.0000
  H   H57       1.0  0.29376  0.72902  0.04756  1.0000
  H   H58       1.0  0.03345  0.94330  0.01164  1.0000
  H   H59       1.0  0.03164  0.72647  0.03236  1.0000
  H   H60       1.0  0.05691  0.69661  0.18994  1.0000
  H   H61       1.0  0.05851  0.74403  0.29693  1.0000
  H   H62       1.0  0.27536  0.74380  0.30878  1.0000
  H   H63       1.0  0.27366  0.69574  0.20230  1.0000
  H   H64       1.0  0.27010  0.95880  0.16477  1.0000
  H   H65       1.0  0.05341  0.96017  0.18198  1.0000
  H   H66       1.0  0.05197  0.90526  0.26752  1.0000
  H   H67       1.0  0.26884  0.90322  0.24883  1.0000
  C   C96       1.0  0.00060  0.83725  0.21265  1.0000
  C   C97       1.0  0.32741  0.86173  0.28438  1.0000
  C   C98       1.0  0.33371  0.78654  0.31321  1.0000
  N   N9        1.0  0.00370  0.80100  0.23077  1.0000
  C   C99       1.0  0.00522  0.84822  0.11846  1.0000
  C   C100      1.0  0.32354  0.82335  0.04372  1.0000
  C   C101      1.0  0.30326  0.85912  0.06769  1.0000
  H   H68       1.0  0.02948  0.86454  0.10058  1.0000
  H   H69       1.0  0.30597  0.88104  0.01850  1.0000
  H   H70       1.0  0.27666  0.85493  0.10047  1.0000
  H   H71       1.0  0.30905  0.79808  0.06266  1.0000
  H   H72       1.0  0.13584  0.99938  0.04245  1.0000
  C   C102      1.0  0.13981  0.99717  0.31937  1.0000
  H   H73       1.0  0.07924  0.98879  0.33576  1.0000
  H   H74       1.0  0.16432  0.97971  0.32540  1.0000
  H   H75       1.0  0.13434  0.01131  0.25676  1.0000
  C   C103      1.0  0.25600  0.71022  0.62008  1.0000
  C   C104      1.0  0.24135  0.01243  0.57609  1.0000
  C   C105      1.0  0.25825  0.97768  0.58864  1.0000
  C   C106      1.0  0.28665  0.97372  0.65127  1.0000
  C   C107      1.0  0.04301  0.96898  0.66201  1.0000
  C   C108      1.0  0.07263  0.97106  0.60224  1.0000
  C   C109      1.0  0.08831  0.67233  0.58121  1.0000
  C   C110      1.0  0.07146  0.70481  0.61352  1.0000
  H   H76       1.0  0.24302  0.73536  0.61582  1.0000
  H   H77       1.0  0.24676  0.95422  0.56236  1.0000
  H   H78       1.0  0.29694  0.94781  0.66176  1.0000
  H   H79       1.0  0.08550  0.94705  0.58358  1.0000
  H   H80       1.0  0.08356  0.73006  0.60344  1.0000
  C   C111      1.0  0.32327  0.84647  0.37014  1.0000
  N   N10       1.0  0.32583  0.80928  0.38233  1.0000
  H   H81       1.0  0.31818  0.86305  0.42369  1.0000
  H   H82       1.0  0.33862  0.82408  0.64779  1.0000
  C   C112      1.0  0.14604  0.67882  0.48904  1.0000
  C   C113      1.0  0.12686  0.00652  0.56997  1.0000
  C   C114      1.0  0.14789  0.00324  0.64837  1.0000
  N   N11       1.0  0.18481  0.00577  0.64481  1.0000
  C   C115      1.0  0.20295  0.01154  0.56757  1.0000
  N   N12       1.0  0.18368  0.68127  0.49052  1.0000
  C   C116      1.0  0.12657  0.68387  0.40366  1.0000
  C   C117      1.0  0.10553  0.98322  0.36851  1.0000
  H   H83       1.0  0.11174  0.70980  0.39316  1.0000
  H   H84       1.0  0.10940  0.95688  0.40273  1.0000
  C   C118      1.0  0.32685  0.23329  0.26863  1.0000
  C   C119      1.0  0.36076  0.25081  0.25034  1.0000
  C   C120      1.0  0.36151  0.28241  0.19669  1.0000
  C   C121      1.0  0.32876  0.29719  0.15854  1.0000
  C   C122      1.0  0.62802  0.28152  0.18636  1.0000
  C   C123      1.0  0.62698  0.24954  0.23906  1.0000
  C   C124      1.0  0.33026  0.99893  0.10327  1.0000
  C   C125      1.0  0.33163  0.02690  0.17858  1.0000
  C   C126      1.0  0.63228  0.03805  0.22348  1.0000
  C   C127      1.0  0.63317  0.06507  0.29034  1.0000
  C   C128      1.0  0.33379  0.08117  0.31524  1.0000
  C   C129      1.0  0.36692  0.06499  0.28425  1.0000
  C   C130      1.0  0.36566  0.03855  0.21619  1.0000
  C   C131      1.0  0.36225  0.00104  0.03803  1.0000
  C   C132      1.0  0.63208  0.33718  0.03757  1.0000
  C   C133      1.0  0.61807  0.03930  0.01510  1.0000
  C   C134      1.0  0.37525  0.03572  0.00678  1.0000
  H   H85       1.0  0.62709  0.06236  0.04756  1.0000
  H   H86       1.0  0.36679  0.27663  0.01164  1.0000
  H   H87       1.0  0.36497  0.05980  0.03236  1.0000
  H   H88       1.0  0.39025  0.02994  0.18994  1.0000
  H   H89       1.0  0.39184  0.07737  0.29693  1.0000
  H   H90       1.0  0.60869  0.07713  0.30878  1.0000
  H   H91       1.0  0.60699  0.02907  0.20230  1.0000
  H   H92       1.0  0.60344  0.29214  0.16477  1.0000
  H   H93       1.0  0.38674  0.29351  0.18198  1.0000
  H   H94       1.0  0.38530  0.23859  0.26752  1.0000
  H   H95       1.0  0.60217  0.23655  0.24883  1.0000
  C   C135      1.0  0.33394  0.17058  0.21265  1.0000
  C   C136      1.0  0.66075  0.19506  0.28438  1.0000
  C   C137      1.0  0.66704  0.11987  0.31321  1.0000
  N   N13       1.0  0.33703  0.13434  0.23077  1.0000
  C   C138      1.0  0.33856  0.18156  0.11846  1.0000
  C   C139      1.0  0.65687  0.15668  0.04372  1.0000
  C   C140      1.0  0.63659  0.19245  0.06769  1.0000
  H   H96       1.0  0.36281  0.19787  0.10058  1.0000
  H   H97       1.0  0.63930  0.21437  0.01850  1.0000
  H   H98       1.0  0.61000  0.18826  0.10047  1.0000
  H   H99       1.0  0.64238  0.13141  0.06266  1.0000
  H   H100      1.0  0.46917  0.33271  0.04245  1.0000
  C   C141      1.0  0.47314  0.33050  0.31937  1.0000
  H   H101      1.0  0.41257  0.32212  0.33576  1.0000
  H   H102      1.0  0.49765  0.31305  0.32540  1.0000
  H   H103      1.0  0.46767  0.34464  0.25676  1.0000
  C   C142      1.0  0.58933  0.04355  0.62008  1.0000
  C   C143      1.0  0.57468  0.34577  0.57609  1.0000
  C   C144      1.0  0.59159  0.31101  0.58864  1.0000
  C   C145      1.0  0.61998  0.30705  0.65127  1.0000
  C   C146      1.0  0.37635  0.30231  0.66201  1.0000
  C   C147      1.0  0.40596  0.30440  0.60224  1.0000
  C   C148      1.0  0.42164  0.00566  0.58121  1.0000
  C   C149      1.0  0.40479  0.03814  0.61352  1.0000
  H   H104      1.0  0.57635  0.06869  0.61582  1.0000
  H   H105      1.0  0.58009  0.28756  0.56236  1.0000
  H   H106      1.0  0.63027  0.28115  0.66176  1.0000
  H   H107      1.0  0.41884  0.28038  0.58358  1.0000
  H   H108      1.0  0.41689  0.06339  0.60344  1.0000
  C   C150      1.0  0.65660  0.17980  0.37014  1.0000
  N   N14       1.0  0.65917  0.14261  0.38233  1.0000
  H   H109      1.0  0.65151  0.19638  0.42369  1.0000
  H   H110      1.0  0.67195  0.15742  0.64779  1.0000
  C   C151      1.0  0.47937  0.01215  0.48904  1.0000
  C   C152      1.0  0.46020  0.33986  0.56997  1.0000
  C   C153      1.0  0.48122  0.33657  0.64837  1.0000
  N   N15       1.0  0.51814  0.33910  0.64481  1.0000
  C   C154      1.0  0.53628  0.34487  0.56757  1.0000
  N   N16       1.0  0.51701  0.01460  0.49052  1.0000
  C   C155      1.0  0.45991  0.01720  0.40366  1.0000
  C   C156      1.0  0.43886  0.31655  0.36851  1.0000
  H   H111      1.0  0.44508  0.04313  0.39316  1.0000
  H   H112      1.0  0.44273  0.29022  0.40273  1.0000
  C   C157      1.0  0.32685  0.56662  0.26863  1.0000
  C   C158      1.0  0.36076  0.58415  0.25034  1.0000
  C   C159      1.0  0.36151  0.61575  0.19669  1.0000
  C   C160      1.0  0.32876  0.63052  0.15854  1.0000
  C   C161      1.0  0.62803  0.61485  0.18636  1.0000
  C   C162      1.0  0.62698  0.58288  0.23906  1.0000
  C   C163      1.0  0.33026  0.33227  0.10327  1.0000
  C   C164      1.0  0.33162  0.36023  0.17858  1.0000
  C   C165      1.0  0.63228  0.37139  0.22348  1.0000
  C   C166      1.0  0.63317  0.39840  0.29034  1.0000
  C   C167      1.0  0.33379  0.41451  0.31524  1.0000
  C   C168      1.0  0.36692  0.39832  0.28425  1.0000
  C   C169      1.0  0.36566  0.37189  0.21619  1.0000
  C   C170      1.0  0.36225  0.33437  0.03803  1.0000
  C   C171      1.0  0.63208  0.67051  0.03757  1.0000
  C   C172      1.0  0.61807  0.37263  0.01510  1.0000
  C   C173      1.0  0.37525  0.36906  0.00678  1.0000
  H   H113      1.0  0.62709  0.39569  0.04756  1.0000
  H   H114      1.0  0.36679  0.60997  0.01164  1.0000
  H   H115      1.0  0.36497  0.39314  0.03236  1.0000
  H   H116      1.0  0.39025  0.36327  0.18994  1.0000
  H   H117      1.0  0.39184  0.41070  0.29693  1.0000
  H   H118      1.0  0.60869  0.41047  0.30878  1.0000
  H   H119      1.0  0.60699  0.36241  0.20230  1.0000
  H   H120      1.0  0.60344  0.62547  0.16477  1.0000
  H   H121      1.0  0.38674  0.62684  0.18198  1.0000
  H   H122      1.0  0.38531  0.57193  0.26752  1.0000
  H   H123      1.0  0.60217  0.56988  0.24883  1.0000
  C   C174      1.0  0.33394  0.50392  0.21265  1.0000
  C   C175      1.0  0.66075  0.52840  0.28438  1.0000
  C   C176      1.0  0.66704  0.45321  0.31321  1.0000
  N   N17       1.0  0.33703  0.46767  0.23077  1.0000
  C   C177      1.0  0.33856  0.51489  0.11846  1.0000
  C   C178      1.0  0.65687  0.49002  0.04372  1.0000
  C   C179      1.0  0.63659  0.52578  0.06769  1.0000
  H   H124      1.0  0.36281  0.53121  0.10058  1.0000
  H   H125      1.0  0.63930  0.54771  0.01850  1.0000
  H   H126      1.0  0.61000  0.52160  0.10047  1.0000
  H   H127      1.0  0.64238  0.46475  0.06266  1.0000
  H   H128      1.0  0.46917  0.66604  0.04245  1.0000
  C   C180      1.0  0.47314  0.66383  0.31937  1.0000
  H   H129      1.0  0.41257  0.65545  0.33576  1.0000
  H   H130      1.0  0.49765  0.64638  0.32540  1.0000
  H   H131      1.0  0.46767  0.67798  0.25676  1.0000
  C   C181      1.0  0.58933  0.37689  0.62008  1.0000
  C   C182      1.0  0.57468  0.67910  0.57609  1.0000
  C   C183      1.0  0.59159  0.64435  0.58864  1.0000
  C   C184      1.0  0.61998  0.64038  0.65127  1.0000
  C   C185      1.0  0.37635  0.63565  0.66201  1.0000
  C   C186      1.0  0.40596  0.63773  0.60224  1.0000
  C   C187      1.0  0.42165  0.33899  0.58121  1.0000
  C   C188      1.0  0.40479  0.37147  0.61352  1.0000
  H   H132      1.0  0.57635  0.40203  0.61582  1.0000
  H   H133      1.0  0.58009  0.62089  0.56236  1.0000
  H   H134      1.0  0.63027  0.61448  0.66176  1.0000
  H   H135      1.0  0.41884  0.61371  0.58358  1.0000
  H   H136      1.0  0.41689  0.39672  0.60344  1.0000
  C   C189      1.0  0.65660  0.51314  0.37014  1.0000
  N   N18       1.0  0.65917  0.47595  0.38233  1.0000
  H   H137      1.0  0.65151  0.52971  0.42369  1.0000
  H   H138      1.0  0.67195  0.49075  0.64779  1.0000
  C   C190      1.0  0.47937  0.34548  0.48904  1.0000
  C   C191      1.0  0.46020  0.67319  0.56997  1.0000
  C   C192      1.0  0.48123  0.66991  0.64837  1.0000
  N   N19       1.0  0.51814  0.67243  0.64481  1.0000
  C   C193      1.0  0.53628  0.67821  0.56757  1.0000
  N   N20       1.0  0.51701  0.34793  0.49052  1.0000
  C   C194      1.0  0.45991  0.35053  0.40366  1.0000
  C   C195      1.0  0.43886  0.64989  0.36851  1.0000
  H   H139      1.0  0.44508  0.37647  0.39316  1.0000
  H   H140      1.0  0.44273  0.62355  0.40273  1.0000
  C   C196      1.0  0.32685  0.89996  0.26863  1.0000
  C   C197      1.0  0.36076  0.91748  0.25034  1.0000
  C   C198      1.0  0.36151  0.94908  0.19669  1.0000
  C   C199      1.0  0.32876  0.96386  0.15854  1.0000
  C   C200      1.0  0.62803  0.94818  0.18636  1.0000
  C   C201      1.0  0.62698  0.91621  0.23906  1.0000
  C   C202      1.0  0.33026  0.66560  0.10327  1.0000
  C   C203      1.0  0.33163  0.69357  0.17858  1.0000
  C   C204      1.0  0.63228  0.70472  0.22348  1.0000
  C   C205      1.0  0.63317  0.73173  0.29034  1.0000
  C   C206      1.0  0.33379  0.74784  0.31524  1.0000
  C   C207      1.0  0.36692  0.73166  0.28425  1.0000
  C   C208      1.0  0.36566  0.70522  0.21619  1.0000
  C   C209      1.0  0.36225  0.66771  0.03803  1.0000
  C   C210      1.0  0.63208  0.00384  0.03757  1.0000
  C   C211      1.0  0.61807  0.70597  0.01510  1.0000
  C   C212      1.0  0.37524  0.70239  0.00678  1.0000
  H   H141      1.0  0.62709  0.72902  0.04756  1.0000
  H   H142      1.0  0.36679  0.94330  0.01164  1.0000
  H   H143      1.0  0.36497  0.72647  0.03236  1.0000
  H   H144      1.0  0.39025  0.69661  0.18994  1.0000
  H   H145      1.0  0.39184  0.74403  0.29693  1.0000
  H   H146      1.0  0.60869  0.74380  0.30878  1.0000
  H   H147      1.0  0.60699  0.69574  0.20230  1.0000
  H   H148      1.0  0.60344  0.95880  0.16477  1.0000
  H   H149      1.0  0.38674  0.96017  0.18198  1.0000
  H   H150      1.0  0.38530  0.90526  0.26752  1.0000
  H   H151      1.0  0.60218  0.90322  0.24883  1.0000
  C   C213      1.0  0.33393  0.83725  0.21265  1.0000
  C   C214      1.0  0.66075  0.86173  0.28438  1.0000
  C   C215      1.0  0.66704  0.78654  0.31321  1.0000
  N   N21       1.0  0.33703  0.80100  0.23077  1.0000
  C   C216      1.0  0.33855  0.84822  0.11846  1.0000
  C   C217      1.0  0.65687  0.82335  0.04372  1.0000
  C   C218      1.0  0.63659  0.85912  0.06769  1.0000
  H   H152      1.0  0.36281  0.86454  0.10058  1.0000
  H   H153      1.0  0.63930  0.88104  0.01850  1.0000
  H   H154      1.0  0.61000  0.85493  0.10047  1.0000
  H   H155      1.0  0.64238  0.79808  0.06266  1.0000
  H   H156      1.0  0.46917  0.99938  0.04245  1.0000
  C   C219      1.0  0.47314  0.99717  0.31937  1.0000
  H   H157      1.0  0.41257  0.98879  0.33576  1.0000
  H   H158      1.0  0.49765  0.97971  0.32540  1.0000
  H   H159      1.0  0.46768  0.01131  0.25676  1.0000
  C   C220      1.0  0.58933  0.71022  0.62008  1.0000
  C   C221      1.0  0.57468  0.01243  0.57609  1.0000
  C   C222      1.0  0.59159  0.97768  0.58864  1.0000
  C   C223      1.0  0.61998  0.97372  0.65127  1.0000
  C   C224      1.0  0.37635  0.96898  0.66201  1.0000
  C   C225      1.0  0.40596  0.97106  0.60224  1.0000
  C   C226      1.0  0.42165  0.67233  0.58121  1.0000
  C   C227      1.0  0.40480  0.70481  0.61352  1.0000
  H   H160      1.0  0.57636  0.73536  0.61582  1.0000
  H   H161      1.0  0.58009  0.95422  0.56236  1.0000
  H   H162      1.0  0.63027  0.94781  0.66176  1.0000
  H   H163      1.0  0.41884  0.94705  0.58358  1.0000
  H   H164      1.0  0.41689  0.73006  0.60344  1.0000
  C   C228      1.0  0.65660  0.84647  0.37014  1.0000
  N   N22       1.0  0.65917  0.80928  0.38233  1.0000
  H   H165      1.0  0.65151  0.86305  0.42369  1.0000
  H   H166      1.0  0.67196  0.82408  0.64779  1.0000
  C   C229      1.0  0.47938  0.67882  0.48904  1.0000
  C   C230      1.0  0.46020  0.00652  0.56997  1.0000
  C   C231      1.0  0.48123  0.00324  0.64837  1.0000
  N   N23       1.0  0.51814  0.00577  0.64481  1.0000
  C   C232      1.0  0.53628  0.01154  0.56757  1.0000
  N   N24       1.0  0.51701  0.68127  0.49052  1.0000
  C   C233      1.0  0.45991  0.68387  0.40366  1.0000
  C   C234      1.0  0.43886  0.98322  0.36851  1.0000
  H   H167      1.0  0.44508  0.70980  0.39316  1.0000
  H   H168      1.0  0.44273  0.95688  0.40273  1.0000
  C   C235      1.0  0.66019  0.23329  0.26863  1.0000
  C   C236      1.0  0.69409  0.25081  0.25034  1.0000
  C   C237      1.0  0.69484  0.28241  0.19669  1.0000
  C   C238      1.0  0.66209  0.29719  0.15854  1.0000
  C   C239      1.0  0.96136  0.28152  0.18636  1.0000
  C   C240      1.0  0.96032  0.24954  0.23906  1.0000
  C   C241      1.0  0.66359  0.99893  0.10327  1.0000
  C   C242      1.0  0.66496  0.02690  0.17858  1.0000
  C   C243      1.0  0.96561  0.03805  0.22348  1.0000
  C   C244      1.0  0.96650  0.06507  0.29034  1.0000
  C   C245      1.0  0.66712  0.08117  0.31524  1.0000
  C   C246      1.0  0.70025  0.06499  0.28425  1.0000
  C   C247      1.0  0.69900  0.03855  0.21619  1.0000
  C   C248      1.0  0.69558  0.00104  0.03803  1.0000
  C   C249      1.0  0.96541  0.33718  0.03757  1.0000
  C   C250      1.0  0.95141  0.03930  0.01510  1.0000
  C   C251      1.0  0.70858  0.03572  0.00678  1.0000
  H   H169      1.0  0.96042  0.06236  0.04756  1.0000
  H   H170      1.0  0.70012  0.27663  0.01164  1.0000
  H   H171      1.0  0.69830  0.05980  0.03236  1.0000
  H   H172      1.0  0.72358  0.02994  0.18994  1.0000
  H   H173      1.0  0.72517  0.07737  0.29693  1.0000
  H   H174      1.0  0.94203  0.07713  0.30878  1.0000
  H   H175      1.0  0.94033  0.02907  0.20230  1.0000
  H   H176      1.0  0.93677  0.29214  0.16477  1.0000
  H   H177      1.0  0.72008  0.29351  0.18198  1.0000
  H   H178      1.0  0.71864  0.23859  0.26752  1.0000
  H   H179      1.0  0.93551  0.23655  0.24883  1.0000
  C   C252      1.0  0.66727  0.17058  0.21265  1.0000
  C   C253      1.0  0.99408  0.19506  0.28438  1.0000
  C   C254      1.0  0.00037  0.11987  0.31321  1.0000
  N   N25       1.0  0.67037  0.13434  0.23077  1.0000
  C   C255      1.0  0.67189  0.18156  0.11846  1.0000
  C   C256      1.0  0.99021  0.15668  0.04372  1.0000
  C   C257      1.0  0.96992  0.19245  0.06769  1.0000
  H   H180      1.0  0.69615  0.19787  0.10058  1.0000
  H   H181      1.0  0.97264  0.21437  0.01850  1.0000
  H   H182      1.0  0.94333  0.18826  0.10047  1.0000
  H   H183      1.0  0.97572  0.13141  0.06266  1.0000
  H   H184      1.0  0.80251  0.33271  0.04245  1.0000
  C   C258      1.0  0.80648  0.33050  0.31937  1.0000
  H   H185      1.0  0.74590  0.32212  0.33576  1.0000
  H   H186      1.0  0.83099  0.31305  0.32540  1.0000
  H   H187      1.0  0.80101  0.34464  0.25676  1.0000
  C   C259      1.0  0.92267  0.04355  0.62008  1.0000
  C   C260      1.0  0.90801  0.34577  0.57609  1.0000
  C   C261      1.0  0.92492  0.31101  0.58864  1.0000
  C   C262      1.0  0.95331  0.30705  0.65127  1.0000
  C   C263      1.0  0.70968  0.30231  0.66201  1.0000
  C   C264      1.0  0.73930  0.30440  0.60224  1.0000
  C   C265      1.0  0.75498  0.00566  0.58121  1.0000
  C   C266      1.0  0.73813  0.03814  0.61352  1.0000
  H   H188      1.0  0.90969  0.06869  0.61582  1.0000
  H   H189      1.0  0.91343  0.28756  0.56236  1.0000
  H   H190      1.0  0.96360  0.28115  0.66176  1.0000
  H   H191      1.0  0.75217  0.28038  0.58358  1.0000
  H   H192      1.0  0.75023  0.06339  0.60344  1.0000
  C   C267      1.0  0.98993  0.17980  0.37014  1.0000
  N   N26       1.0  0.99250  0.14261  0.38233  1.0000
  H   H193      1.0  0.98485  0.19638  0.42369  1.0000
  H   H194      1.0  0.00529  0.15742  0.64779  1.0000
  C   C268      1.0  0.81271  0.01215  0.48904  1.0000
  C   C269      1.0  0.79353  0.33986  0.56997  1.0000
  C   C270      1.0  0.81456  0.33657  0.64837  1.0000
  N   N27       1.0  0.85147  0.33910  0.64481  1.0000
  C   C271      1.0  0.86961  0.34487  0.56757  1.0000
  N   N28       1.0  0.85035  0.01460  0.49052  1.0000
  C   C272      1.0  0.79324  0.01720  0.40366  1.0000
  C   C273      1.0  0.77219  0.31655  0.36851  1.0000
  H   H195      1.0  0.77841  0.04313  0.39316  1.0000
  H   H196      1.0  0.77606  0.29022  0.40273  1.0000
  C   C274      1.0  0.66019  0.56662  0.26863  1.0000
  C   C275      1.0  0.69409  0.58415  0.25034  1.0000
  C   C276      1.0  0.69484  0.61575  0.19669  1.0000
  C   C277      1.0  0.66209  0.63052  0.15854  1.0000
  C   C278      1.0  0.96136  0.61485  0.18636  1.0000
  C   C279      1.0  0.96032  0.58288  0.23906  1.0000
  C   C280      1.0  0.66359  0.33227  0.10327  1.0000
  C   C281      1.0  0.66496  0.36023  0.17858  1.0000
  C   C282      1.0  0.96561  0.37139  0.22348  1.0000
  C   C283      1.0  0.96651  0.39840  0.29034  1.0000
  C   C284      1.0  0.66712  0.41451  0.31524  1.0000
  C   C285      1.0  0.70025  0.39832  0.28425  1.0000
  C   C286      1.0  0.69900  0.37189  0.21619  1.0000
  C   C287      1.0  0.69558  0.33437  0.03803  1.0000
  C   C288      1.0  0.96542  0.67051  0.03757  1.0000
  C   C289      1.0  0.95141  0.37263  0.01510  1.0000
  C   C290      1.0  0.70858  0.36906  0.00678  1.0000
  H   H197      1.0  0.96042  0.39569  0.04756  1.0000
  H   H198      1.0  0.70012  0.60997  0.01164  1.0000
  H   H199      1.0  0.69830  0.39314  0.03236  1.0000
  H   H200      1.0  0.72358  0.36327  0.18994  1.0000
  H   H201      1.0  0.72517  0.41070  0.29693  1.0000
  H   H202      1.0  0.94203  0.41047  0.30878  1.0000
  H   H203      1.0  0.94033  0.36241  0.20230  1.0000
  H   H204      1.0  0.93677  0.62547  0.16477  1.0000
  H   H205      1.0  0.72007  0.62684  0.18198  1.0000
  H   H206      1.0  0.71864  0.57193  0.26752  1.0000
  H   H207      1.0  0.93551  0.56988  0.24883  1.0000
  C   C291      1.0  0.66727  0.50392  0.21265  1.0000
  C   C292      1.0  0.99408  0.52840  0.28438  1.0000
  C   C293      1.0  0.00037  0.45321  0.31321  1.0000
  N   N29       1.0  0.67036  0.46767  0.23077  1.0000
  C   C294      1.0  0.67189  0.51489  0.11846  1.0000
  C   C295      1.0  0.99021  0.49002  0.04372  1.0000
  C   C296      1.0  0.96992  0.52578  0.06769  1.0000
  H   H208      1.0  0.69614  0.53121  0.10058  1.0000
  H   H209      1.0  0.97264  0.54771  0.01850  1.0000
  H   H210      1.0  0.94333  0.52160  0.10047  1.0000
  H   H211      1.0  0.97572  0.46475  0.06266  1.0000
  H   H212      1.0  0.80251  0.66604  0.04245  1.0000
  C   C297      1.0  0.80648  0.66383  0.31937  1.0000
  H   H213      1.0  0.74590  0.65545  0.33576  1.0000
  H   H214      1.0  0.83098  0.64638  0.32540  1.0000
  H   H215      1.0  0.80101  0.67798  0.25676  1.0000
  C   C298      1.0  0.92267  0.37689  0.62008  1.0000
  C   C299      1.0  0.90802  0.67910  0.57609  1.0000
  C   C300      1.0  0.92492  0.64435  0.58864  1.0000
  C   C301      1.0  0.95331  0.64038  0.65127  1.0000
  C   C302      1.0  0.70968  0.63565  0.66201  1.0000
  C   C303      1.0  0.73930  0.63773  0.60224  1.0000
  C   C304      1.0  0.75498  0.33899  0.58121  1.0000
  C   C305      1.0  0.73813  0.37147  0.61352  1.0000
  H   H216      1.0  0.90969  0.40203  0.61582  1.0000
  H   H217      1.0  0.91343  0.62089  0.56236  1.0000
  H   H218      1.0  0.96360  0.61448  0.66176  1.0000
  H   H219      1.0  0.75217  0.61371  0.58358  1.0000
  H   H220      1.0  0.75023  0.39672  0.60344  1.0000
  C   C306      1.0  0.98994  0.51314  0.37014  1.0000
  N   N30       1.0  0.99250  0.47595  0.38233  1.0000
  H   H221      1.0  0.98485  0.52971  0.42369  1.0000
  H   H222      1.0  0.00529  0.49075  0.64779  1.0000
  C   C307      1.0  0.81271  0.34548  0.48904  1.0000
  C   C308      1.0  0.79353  0.67319  0.56997  1.0000
  C   C309      1.0  0.81456  0.66991  0.64837  1.0000
  N   N31       1.0  0.85147  0.67243  0.64481  1.0000
  C   C310      1.0  0.86961  0.67821  0.56757  1.0000
  N   N32       1.0  0.85035  0.34793  0.49052  1.0000
  C   C311      1.0  0.79324  0.35053  0.40366  1.0000
  C   C312      1.0  0.77219  0.64989  0.36851  1.0000
  H   H223      1.0  0.77841  0.37647  0.39316  1.0000
  H   H224      1.0  0.77607  0.62355  0.40273  1.0000
  C   C313      1.0  0.66019  0.89996  0.26863  1.0000
  C   C314      1.0  0.69409  0.91748  0.25034  1.0000
  C   C315      1.0  0.69484  0.94908  0.19669  1.0000
  C   C316      1.0  0.66209  0.96386  0.15854  1.0000
  C   C317      1.0  0.96136  0.94818  0.18636  1.0000
  C   C318      1.0  0.96032  0.91621  0.23906  1.0000
  C   C319      1.0  0.66359  0.66560  0.10327  1.0000
  C   C320      1.0  0.66496  0.69357  0.17858  1.0000
  C   C321      1.0  0.96561  0.70472  0.22348  1.0000
  C   C322      1.0  0.96651  0.73173  0.29034  1.0000
  C   C323      1.0  0.66712  0.74784  0.31524  1.0000
  C   C324      1.0  0.70025  0.73166  0.28425  1.0000
  C   C325      1.0  0.69900  0.70522  0.21619  1.0000
  C   C326      1.0  0.69559  0.66771  0.03803  1.0000
  C   C327      1.0  0.96541  0.00384  0.03757  1.0000
  C   C328      1.0  0.95141  0.70597  0.01510  1.0000
  C   C329      1.0  0.70858  0.70239  0.00678  1.0000
  H   H225      1.0  0.96043  0.72902  0.04756  1.0000
  H   H226      1.0  0.70012  0.94330  0.01164  1.0000
  H   H227      1.0  0.69830  0.72647  0.03236  1.0000
  H   H228      1.0  0.72358  0.69661  0.18994  1.0000
  H   H229      1.0  0.72517  0.74403  0.29693  1.0000
  H   H230      1.0  0.94203  0.74380  0.30878  1.0000
  H   H231      1.0  0.94033  0.69574  0.20230  1.0000
  H   H232      1.0  0.93677  0.95880  0.16477  1.0000
  H   H233      1.0  0.72007  0.96017  0.18198  1.0000
  H   H234      1.0  0.71864  0.90526  0.26752  1.0000
  H   H235      1.0  0.93551  0.90322  0.24883  1.0000
  C   C330      1.0  0.66727  0.83725  0.21265  1.0000
  C   C331      1.0  0.99408  0.86173  0.28438  1.0000
  C   C332      1.0  0.00037  0.78654  0.31321  1.0000
  N   N33       1.0  0.67036  0.80100  0.23077  1.0000
  C   C333      1.0  0.67189  0.84822  0.11846  1.0000
  C   C334      1.0  0.99021  0.82335  0.04372  1.0000
  C   C335      1.0  0.96992  0.85912  0.06769  1.0000
  H   H236      1.0  0.69615  0.86454  0.10058  1.0000
  H   H237      1.0  0.97263  0.88104  0.01850  1.0000
  H   H238      1.0  0.94333  0.85493  0.10047  1.0000
  H   H239      1.0  0.97571  0.79808  0.06266  1.0000
  H   H240      1.0  0.80251  0.99938  0.04245  1.0000
  C   C336      1.0  0.80648  0.99717  0.31937  1.0000
  H   H241      1.0  0.74591  0.98879  0.33576  1.0000
  H   H242      1.0  0.83099  0.97971  0.32540  1.0000
  H   H243      1.0  0.80101  0.01131  0.25676  1.0000
  C   C337      1.0  0.92267  0.71022  0.62008  1.0000
  C   C338      1.0  0.90802  0.01243  0.57609  1.0000
  C   C339      1.0  0.92492  0.97768  0.58864  1.0000
  C   C340      1.0  0.95331  0.97372  0.65127  1.0000
  C   C341      1.0  0.70968  0.96898  0.66201  1.0000
  C   C342      1.0  0.73930  0.97106  0.60224  1.0000
  C   C343      1.0  0.75498  0.67233  0.58121  1.0000
  C   C344      1.0  0.73813  0.70481  0.61352  1.0000
  H   H244      1.0  0.90969  0.73536  0.61582  1.0000
  H   H245      1.0  0.91343  0.95422  0.56236  1.0000
  H   H246      1.0  0.96361  0.94781  0.66176  1.0000
  H   H247      1.0  0.75217  0.94705  0.58358  1.0000
  H   H248      1.0  0.75023  0.73006  0.60344  1.0000
  C   C345      1.0  0.98993  0.84647  0.37014  1.0000
  N   N34       1.0  0.99250  0.80928  0.38233  1.0000
  H   H249      1.0  0.98484  0.86305  0.42369  1.0000
  H   H250      1.0  0.00529  0.82408  0.64779  1.0000
  C   C346      1.0  0.81271  0.67882  0.48904  1.0000
  C   C347      1.0  0.79353  0.00652  0.56997  1.0000
  C   C348      1.0  0.81456  0.00324  0.64837  1.0000
  N   N35       1.0  0.85147  0.00577  0.64481  1.0000
  C   C349      1.0  0.86962  0.01154  0.56757  1.0000
  N   N36       1.0  0.85035  0.68127  0.49052  1.0000
  C   C350      1.0  0.79324  0.68387  0.40366  1.0000
  C   C351      1.0  0.77219  0.98322  0.36851  1.0000
  H   H251      1.0  0.77841  0.70980  0.39316  1.0000
  H   H252      1.0  0.77607  0.95688  0.40273  1.0000
