data_image0
_chemical_formula_structural       C3H3CHC6H4C6H4CHC3H3C12H7C12H7C3HCHC3HCH3C3HCH3C3HCH3C6H4C6H4C6H4C3H3C3H3C3HCH3C3HCH3C3HCH2C3HCH3C2HCH5C3HCH3C3HCH3C3HCH3C3HCH3C3HCH3CHC3HCH3C3H3C3HCH3C3HCH3C3HCH3C3HCH3C3HCH3C3HCH3C24H15C24H15C18H11C24H15C21H12C24H15C21H12C24H15C24H15C24H15C3HCH3C3HCH3C3HCH3C3HCH4C3HCH3C3H3C3HCH3CHC4HCH3C3HCH3C3HCH3C3HCH3C3HCH3
_chemical_formula_sum              "C432 H324"
_cell_length_a       75.7803
_cell_length_b       75.7802
_cell_length_c       14.9141
_cell_angle_alpha    90
_cell_angle_beta     90
_cell_angle_gamma    120

_space_group_name_H-M_alt    "P 1"
_space_group_IT_number       1

loop_
  _space_group_symop_operation_xyz
  'x, y, z'

loop_
  _atom_site_type_symbol
  _atom_site_label
  _atom_site_symmetry_multiplicity
  _atom_site_fract_x
  _atom_site_fract_y
  _atom_site_fract_z
  _atom_site_occupancy
  C   C1        1.0  0.02167  0.80850  0.32868  1.0000
  C   C2        1.0  0.00973  0.80495  0.24989  1.0000
  C   C3        1.0  0.01836  0.81346  0.15997  1.0000
  H   H1        1.0  0.03475  0.82387  0.16073  1.0000
  H   H2        1.0  0.01134  0.82196  0.13379  1.0000
  H   H3        1.0  0.01516  0.80102  0.11381  1.0000
  C   C4        1.0  0.01147  0.19454  0.25642  1.0000
  H   H4        1.0  0.01998  0.19675  0.19968  1.0000
  C   C5        1.0  0.08731  0.23473  0.33667  1.0000
  C   C6        1.0  0.07596  0.21655  0.38680  1.0000
  C   C7        1.0  0.05449  0.20599  0.38735  1.0000
  C   C8        1.0  0.04347  0.21332  0.33861  1.0000
  C   C9        1.0  0.05465  0.23125  0.28728  1.0000
  C   C10       1.0  0.07612  0.24175  0.28661  1.0000
  H   H5        1.0  0.08326  0.21094  0.42506  1.0000
  H   H6        1.0  0.04691  0.19290  0.42433  1.0000
  H   H7        1.0  0.08353  0.25454  0.24767  1.0000
  H   H8        1.0  0.04721  0.23693  0.25039  1.0000
  C   C11       1.0  0.08735  0.84091  0.33225  1.0000
  C   C12       1.0  0.07613  0.82294  0.28072  1.0000
  C   C13       1.0  0.05465  0.81230  0.27954  1.0000
  C   C14       1.0  0.04349  0.81937  0.32896  1.0000
  C   C15       1.0  0.05455  0.83713  0.38149  1.0000
  C   C16       1.0  0.07601  0.84767  0.38291  1.0000
  H   H9        1.0  0.04718  0.79933  0.24175  1.0000
  H   H10       1.0  0.08352  0.81751  0.24201  1.0000
  H   H11       1.0  0.04701  0.84261  0.41899  1.0000
  H   H12       1.0  0.08331  0.86027  0.42304  1.0000
  C   C17       1.0  0.01147  0.80043  0.41094  1.0000
  H   H13       1.0  0.01998  0.80265  0.46771  1.0000
  C   C18       1.0  0.02166  0.20258  0.33870  1.0000
  C   C19       1.0  0.00972  0.19902  0.41751  1.0000
  C   C20       1.0  0.01837  0.20749  0.50746  1.0000
  H   H14       1.0  0.03478  0.21782  0.50674  1.0000
  H   H15       1.0  0.01510  0.19502  0.55356  1.0000
  H   H16       1.0  0.01142  0.21605  0.53367  1.0000
  C   C21       1.0  0.14200  0.24552  0.33409  1.0000
  C   C22       1.0  0.15244  0.26712  0.33713  1.0000
  C   C23       1.0  0.14209  0.27835  0.33993  1.0000
  C   C24       1.0  0.12050  0.26718  0.34047  1.0000
  C   C25       1.0  0.10924  0.24561  0.33670  1.0000
  C   C26       1.0  0.12041  0.23520  0.33319  1.0000
  C   C27       1.0  0.15302  0.30029  0.34175  1.0000
  C   C28       1.0  0.15700  0.33312  0.29187  1.0000
  C   C29       1.0  0.14639  0.31166  0.29057  1.0000
  C   C30       1.0  0.15286  0.23445  0.33224  1.0000
  C   C31       1.0  0.15665  0.20543  0.38149  1.0000
  C   C32       1.0  0.14610  0.21635  0.38292  1.0000
  H   H17       1.0  0.15116  0.19242  0.41899  1.0000
  H   H18       1.0  0.13350  0.21105  0.42302  1.0000
  H   H19       1.0  0.13384  0.30439  0.25011  1.0000
  H   H20       1.0  0.15162  0.34068  0.25395  1.0000
  H   H21       1.0  0.16803  0.27488  0.33729  1.0000
  H   H22       1.0  0.11258  0.21967  0.32713  1.0000
  H   H23       1.0  0.11274  0.27496  0.34644  1.0000
  C   C33       1.0  0.10929  0.85177  0.33410  1.0000
  C   C34       1.0  0.12044  0.84134  0.33715  1.0000
  C   C35       1.0  0.14202  0.85168  0.33993  1.0000
  C   C36       1.0  0.15244  0.87328  0.34046  1.0000
  C   C37       1.0  0.14213  0.88453  0.33670  1.0000
  C   C38       1.0  0.12056  0.87337  0.33323  1.0000
  C   C39       1.0  0.15302  0.84075  0.34174  1.0000
  C   C40       1.0  0.14629  0.82284  0.39370  1.0000
  C   C41       1.0  0.15707  0.81214  0.39478  1.0000
  C   C42       1.0  0.15318  0.90646  0.33665  1.0000
  C   C43       1.0  0.14635  0.91782  0.38676  1.0000
  C   C44       1.0  0.15726  0.93929  0.38731  1.0000
  H   H24       1.0  0.13346  0.91052  0.42508  1.0000
  H   H25       1.0  0.15176  0.94686  0.42433  1.0000
  H   H26       1.0  0.15159  0.79922  0.43291  1.0000
  H   H27       1.0  0.13353  0.81751  0.43277  1.0000
  H   H28       1.0  0.11262  0.82575  0.33729  1.0000
  H   H29       1.0  0.11285  0.88120  0.32714  1.0000
  H   H30       1.0  0.16798  0.88103  0.34642  1.0000
  C   C45       1.0  0.20893  0.40957  0.33423  1.0000
  C   C46       1.0  0.20556  0.39757  0.25579  1.0000
  C   C47       1.0  0.19390  0.37608  0.26262  1.0000
  H   H31       1.0  0.19179  0.36752  0.20612  1.0000
  C   C48       1.0  0.21425  0.40614  0.16603  1.0000
  H   H32       1.0  0.20191  0.40289  0.11922  1.0000
  C   C49       1.0  0.20640  0.78484  0.33420  1.0000
  C   C50       1.0  0.19777  0.78821  0.25577  1.0000
  C   C51       1.0  0.18794  0.79988  0.26259  1.0000
  H   H33       1.0  0.18149  0.80199  0.20609  1.0000
  C   C52       1.0  0.19764  0.77952  0.16600  1.0000
  H   H34       1.0  0.20364  0.76912  0.16666  1.0000
  H   H35       1.0  0.20674  0.79186  0.11919  1.0000
  H   H36       1.0  0.18205  0.77095  0.14071  1.0000
  C   C53       1.0  0.18526  0.20118  0.32868  1.0000
  C   C54       1.0  0.18882  0.19279  0.24987  1.0000
  C   C55       1.0  0.20046  0.18292  0.25641  1.0000
  H   H37       1.0  0.20267  0.17661  0.19966  1.0000
  C   C56       1.0  0.18031  0.19292  0.15996  1.0000
  H   H38       1.0  0.16991  0.19889  0.16073  1.0000
  H   H39       1.0  0.17181  0.17740  0.13377  1.0000
  H   H40       1.0  0.19275  0.20215  0.11381  1.0000
  C   C57       1.0  0.20710  0.01576  0.32867  1.0000
  C   C58       1.0  0.19871  0.00382  0.24987  1.0000
  C   C59       1.0  0.18884  0.98231  0.25640  1.0000
  H   H41       1.0  0.18253  0.97379  0.19966  1.0000
  C   C60       1.0  0.19883  0.01245  0.15996  1.0000
  H   H42       1.0  0.20482  0.02884  0.16072  1.0000
  H   H43       1.0  0.18332  0.00544  0.13378  1.0000
  H   H44       1.0  0.20807  0.00925  0.11379  1.0000
  C   C61       1.0  0.17093  0.31146  0.39373  1.0000
  C   C62       1.0  0.18163  0.33294  0.39480  1.0000
  C   C63       1.0  0.17469  0.34414  0.34480  1.0000
  C   C64       1.0  0.17084  0.24120  0.28072  1.0000
  C   C65       1.0  0.18148  0.23036  0.27956  1.0000
  C   C66       1.0  0.17440  0.21213  0.32897  1.0000
  H   H45       1.0  0.19445  0.23586  0.24175  1.0000
  H   H46       1.0  0.17627  0.25402  0.24201  1.0000
  H   H47       1.0  0.19456  0.34039  0.43291  1.0000
  H   H48       1.0  0.17627  0.30404  0.43275  1.0000
  C   C67       1.0  0.17521  0.81908  0.34477  1.0000
  C   C68       1.0  0.18188  0.83677  0.29183  1.0000
  C   C69       1.0  0.17103  0.84738  0.29051  1.0000
  C   C70       1.0  0.17562  0.95031  0.33858  1.0000
  C   C71       1.0  0.18236  0.93912  0.28724  1.0000
  C   C72       1.0  0.17139  0.91765  0.28656  1.0000
  H   H49       1.0  0.17677  0.91024  0.24766  1.0000
  H   H50       1.0  0.19548  0.94656  0.25036  1.0000
  H   H51       1.0  0.17631  0.85993  0.25010  1.0000
  H   H52       1.0  0.19483  0.84216  0.25392  1.0000
  C   C73       1.0  0.21805  0.03757  0.32895  1.0000
  C   C74       1.0  0.21135  0.04863  0.38147  1.0000
  C   C75       1.0  0.22227  0.07010  0.38289  1.0000
  C   C76       1.0  0.22248  0.14044  0.38678  1.0000
  C   C77       1.0  0.21191  0.15135  0.38733  1.0000
  C   C78       1.0  0.21925  0.16971  0.33859  1.0000
  H   H53       1.0  0.19834  0.04110  0.41898  1.0000
  H   H54       1.0  0.21697  0.07739  0.42303  1.0000
  H   H55       1.0  0.21687  0.12754  0.42506  1.0000
  H   H56       1.0  0.19882  0.14583  0.42432  1.0000
  C   C79       1.0  0.21256  0.44239  0.28379  1.0000
  C   C80       1.0  0.21970  0.43138  0.33398  1.0000
  C   C81       1.0  0.22181  0.55526  0.27760  1.0000
  H   H57       1.0  0.21424  0.55581  0.22179  1.0000
  H   H58       1.0  0.19963  0.43480  0.24580  1.0000
  H   H59       1.0  0.21753  0.47114  0.24575  1.0000
  C   C82       1.0  0.21744  0.77407  0.33395  1.0000
  C   C83       1.0  0.21097  0.75640  0.38680  1.0000
  C   C84       1.0  0.22204  0.74600  0.38789  1.0000
  H   H60       1.0  0.21408  0.64657  0.22541  1.0000
  H   H61       1.0  0.21694  0.73351  0.42852  1.0000
  H   H62       1.0  0.19804  0.75090  0.42491  1.0000
  C   C85       1.0  0.18563  0.36595  0.34481  1.0000
  C   C86       1.0  0.18903  0.37795  0.42328  1.0000
  C   C87       1.0  0.20069  0.39945  0.41645  1.0000
  H   H63       1.0  0.20278  0.40801  0.47292  1.0000
  C   C88       1.0  0.18033  0.36939  0.51305  1.0000
  H   H64       1.0  0.16995  0.35299  0.51242  1.0000
  H   H65       1.0  0.17175  0.37640  0.53829  1.0000
  H   H66       1.0  0.19267  0.37265  0.55988  1.0000
  C   C89       1.0  0.18608  0.80815  0.34478  1.0000
  C   C90       1.0  0.19469  0.80475  0.42325  1.0000
  C   C91       1.0  0.20452  0.79308  0.41643  1.0000
  H   H67       1.0  0.21099  0.79100  0.47289  1.0000
  C   C92       1.0  0.19482  0.81345  0.51302  1.0000
  H   H68       1.0  0.18882  0.82383  0.51239  1.0000
  H   H69       1.0  0.21042  0.82203  0.53825  1.0000
  H   H70       1.0  0.18575  0.80111  0.55985  1.0000
  C   C93       1.0  0.20850  0.18076  0.33869  1.0000
  C   C94       1.0  0.20495  0.18915  0.41749  1.0000
  C   C95       1.0  0.19334  0.19904  0.41093  1.0000
  H   H71       1.0  0.19112  0.20533  0.46771  1.0000
  C   C96       1.0  0.21341  0.18896  0.50744  1.0000
  H   H72       1.0  0.20095  0.17977  0.55355  1.0000
  H   H73       1.0  0.22197  0.20447  0.53366  1.0000
  C   C97       1.0  0.18668  0.97211  0.33867  1.0000
  C   C98       1.0  0.19507  0.98405  0.41748  1.0000
  C   C99       1.0  0.20497  0.00556  0.41092  1.0000
  H   H74       1.0  0.21126  0.01406  0.46769  1.0000
  C   C100      1.0  0.19488  0.97540  0.50743  1.0000
  H   H75       1.0  0.18882  0.95900  0.50670  1.0000
  H   H76       1.0  0.18569  0.97867  0.55354  1.0000
  H   H77       1.0  0.21039  0.98235  0.53364  1.0000
  C   C101      1.0  0.21374  0.59220  0.40391  1.0000
  C   C102      1.0  0.21535  0.61160  0.39944  1.0000
  H   H78       1.0  0.20870  0.61570  0.44893  1.0000
  C   C103      1.0  0.20172  0.57863  0.47938  1.0000
  H   H79       1.0  0.19978  0.56341  0.47455  1.0000
  H   H80       1.0  0.18651  0.57686  0.48026  1.0000
  H   H81       1.0  0.20927  0.58537  0.54286  1.0000
  H   H82       1.0  0.22282  0.39911  0.14073  1.0000
  H   H83       1.0  0.22465  0.42253  0.16670  1.0000
  C   C104      1.0  0.58420  0.78736  0.33422  1.0000
  C   C105      1.0  0.59620  0.79599  0.25578  1.0000
  C   C106      1.0  0.61770  0.80582  0.26261  1.0000
  H   H84       1.0  0.62626  0.81227  0.20611  1.0000
  C   C107      1.0  0.58763  0.79612  0.16601  1.0000
  H   H85       1.0  0.57124  0.79012  0.16668  1.0000
  H   H86       1.0  0.59088  0.78702  0.11921  1.0000
  H   H87       1.0  0.59466  0.81171  0.14071  1.0000
  C   C108      1.0  0.79076  0.57827  0.33423  1.0000
  C   C109      1.0  0.79413  0.59027  0.25579  1.0000
  C   C110      1.0  0.80579  0.61177  0.26261  1.0000
  H   H88       1.0  0.80790  0.62033  0.20610  1.0000
  C   C111      1.0  0.78543  0.58170  0.16603  1.0000
  H   H89       1.0  0.77504  0.56531  0.16670  1.0000
  H   H90       1.0  0.79777  0.58495  0.11922  1.0000
  H   H91       1.0  0.77686  0.58873  0.14075  1.0000
  C   C112      1.0  0.41550  0.20049  0.33422  1.0000
  C   C113      1.0  0.40349  0.19186  0.25578  1.0000
  C   C114      1.0  0.38200  0.18203  0.26261  1.0000
  H   H92       1.0  0.37344  0.17558  0.20611  1.0000
  C   C115      1.0  0.41206  0.19173  0.16602  1.0000
  H   H93       1.0  0.42845  0.19773  0.16668  1.0000
  H   H94       1.0  0.40881  0.20082  0.11920  1.0000
  H   H95       1.0  0.40504  0.17614  0.14073  1.0000
  C   C116      1.0  0.79329  0.20302  0.33427  1.0000
  C   C117      1.0  0.80192  0.19965  0.25583  1.0000
  C   C118      1.0  0.81176  0.18799  0.26266  1.0000
  H   H96       1.0  0.81821  0.18588  0.20616  1.0000
  C   C119      1.0  0.80204  0.20834  0.16607  1.0000
  H   H97       1.0  0.79605  0.21873  0.16673  1.0000
  H   H98       1.0  0.79295  0.19600  0.11926  1.0000
  H   H99       1.0  0.81763  0.21691  0.14077  1.0000
  C   C120      1.0  0.79259  0.97210  0.32868  1.0000
  C   C121      1.0  0.80098  0.98404  0.24988  1.0000
  C   C122      1.0  0.81085  0.00555  0.25641  1.0000
  H   H100      1.0  0.81716  0.01406  0.19966  1.0000
  C   C123      1.0  0.80085  0.97540  0.15996  1.0000
  H   H101      1.0  0.79487  0.95902  0.16073  1.0000
  H   H102      1.0  0.81637  0.98242  0.13378  1.0000
  H   H103      1.0  0.79162  0.97861  0.11381  1.0000
  C   C124      1.0  0.98822  0.79331  0.25643  1.0000
  H   H104      1.0  0.97970  0.79110  0.19968  1.0000
  C   C125      1.0  0.81442  0.78667  0.32867  1.0000
  C   C126      1.0  0.81087  0.79506  0.24986  1.0000
  C   C127      1.0  0.79924  0.80494  0.25640  1.0000
  H   H105      1.0  0.79702  0.81124  0.19966  1.0000
  C   C128      1.0  0.81938  0.79494  0.15995  1.0000
  H   H106      1.0  0.82979  0.78896  0.16071  1.0000
  H   H107      1.0  0.82788  0.81046  0.13377  1.0000
  H   H108      1.0  0.80694  0.78571  0.11379  1.0000
  C   C129      1.0  0.97802  0.17934  0.32870  1.0000
  C   C130      1.0  0.98996  0.18290  0.24989  1.0000
  C   C131      1.0  0.98132  0.17439  0.15997  1.0000
  H   H109      1.0  0.96494  0.16398  0.16074  1.0000
  H   H110      1.0  0.98834  0.16589  0.13379  1.0000
  H   H111      1.0  0.98453  0.18683  0.11382  1.0000
  C   C132      1.0  0.22656  0.62583  0.33135  1.0000
  C   C133      1.0  0.23608  0.62024  0.26359  1.0000
  C   C134      1.0  0.23425  0.60073  0.26765  1.0000
  H   H112      1.0  0.24210  0.59722  0.22170  1.0000
  C   C135      1.0  0.24934  0.63411  0.19122  1.0000
  H   H113      1.0  0.25134  0.64934  0.19429  1.0000
  H   H114      1.0  0.24276  0.62761  0.12598  1.0000
  H   H115      1.0  0.26448  0.63576  0.19542  1.0000
  C   C136      1.0  0.36794  0.58872  0.33127  1.0000
  C   C137      1.0  0.37354  0.60385  0.26353  1.0000
  C   C138      1.0  0.39305  0.62153  0.26763  1.0000
  H   H116      1.0  0.39656  0.63289  0.22167  1.0000
  C   C139      1.0  0.35968  0.60323  0.19111  1.0000
  H   H117      1.0  0.34445  0.59000  0.19413  1.0000
  H   H118      1.0  0.36619  0.60316  0.12590  1.0000
  H   H119      1.0  0.35802  0.61672  0.19531  1.0000
  C   C140      1.0  0.40504  0.76721  0.33137  1.0000
  C   C141      1.0  0.38991  0.75768  0.26364  1.0000
  C   C142      1.0  0.37223  0.75950  0.26773  1.0000
  H   H120      1.0  0.36086  0.75164  0.22180  1.0000
  C   C143      1.0  0.39052  0.74441  0.19129  1.0000
  H   H121      1.0  0.40376  0.74242  0.19435  1.0000
  H   H122      1.0  0.39060  0.75099  0.12604  1.0000
  H   H123      1.0  0.37704  0.72927  0.19553  1.0000
  C   C144      1.0  0.77315  0.36202  0.33102  1.0000
  C   C145      1.0  0.76361  0.36763  0.26335  1.0000
  C   C146      1.0  0.76543  0.38713  0.26753  1.0000
  H   H124      1.0  0.75757  0.39064  0.22162  1.0000
  C   C147      1.0  0.75038  0.35378  0.19088  1.0000
  H   H125      1.0  0.74842  0.33856  0.19378  1.0000
  H   H126      1.0  0.75695  0.36031  0.12568  1.0000
  H   H127      1.0  0.73522  0.35208  0.19516  1.0000
  C   C148      1.0  0.63175  0.39912  0.33141  1.0000
  C   C149      1.0  0.62615  0.38399  0.26366  1.0000
  C   C150      1.0  0.60663  0.36632  0.26773  1.0000
  H   H128      1.0  0.60312  0.35495  0.22179  1.0000
  C   C151      1.0  0.64001  0.38460  0.19128  1.0000
  H   H129      1.0  0.65525  0.39783  0.19433  1.0000
  H   H130      1.0  0.63351  0.38468  0.12604  1.0000
  H   H131      1.0  0.64167  0.37111  0.19551  1.0000
  C   C152      1.0  0.59466  0.22066  0.33138  1.0000
  C   C153      1.0  0.60978  0.23017  0.26361  1.0000
  C   C154      1.0  0.62745  0.22832  0.26769  1.0000
  H   H132      1.0  0.63881  0.23616  0.22172  1.0000
  C   C155      1.0  0.60917  0.24342  0.19120  1.0000
  H   H133      1.0  0.59595  0.24543  0.19426  1.0000
  H   H134      1.0  0.60909  0.23683  0.12598  1.0000
  H   H135      1.0  0.62267  0.25856  0.19539  1.0000
  C   C156      1.0  0.74825  0.88448  0.33409  1.0000
  C   C157      1.0  0.72666  0.87333  0.33714  1.0000
  C   C158      1.0  0.71542  0.85175  0.33994  1.0000
  C   C159      1.0  0.72660  0.84133  0.34046  1.0000
  C   C160      1.0  0.74816  0.85164  0.33668  1.0000
  C   C161      1.0  0.75857  0.87321  0.33319  1.0000
  C   C162      1.0  0.69349  0.84074  0.34176  1.0000
  C   C163      1.0  0.68231  0.84747  0.39374  1.0000
  C   C164      1.0  0.66083  0.83670  0.39480  1.0000
  C   C165      1.0  0.64963  0.81856  0.34479  1.0000
  C   C166      1.0  0.66065  0.81188  0.29187  1.0000
  C   C167      1.0  0.68212  0.82274  0.29057  1.0000
  C   C168      1.0  0.75932  0.90642  0.33224  1.0000
  C   C169      1.0  0.75257  0.91764  0.28073  1.0000
  C   C170      1.0  0.76340  0.93912  0.27957  1.0000
  C   C171      1.0  0.78164  0.95028  0.32897  1.0000
  C   C172      1.0  0.78834  0.93922  0.38149  1.0000
  C   C173      1.0  0.77742  0.91775  0.38292  1.0000
  C   C174      1.0  0.75905  0.84059  0.33664  1.0000
  C   C175      1.0  0.77723  0.84742  0.38675  1.0000
  C   C176      1.0  0.78779  0.83651  0.38732  1.0000
  C   C177      1.0  0.78045  0.81815  0.33858  1.0000
  C   C178      1.0  0.76252  0.81141  0.28724  1.0000
  C   C179      1.0  0.75202  0.82238  0.28657  1.0000
  H   H136      1.0  0.75790  0.94659  0.24176  1.0000
  H   H137      1.0  0.73975  0.91025  0.24201  1.0000
  H   H138      1.0  0.80135  0.94676  0.41898  1.0000
  H   H139      1.0  0.78272  0.91046  0.42302  1.0000
  H   H140      1.0  0.78283  0.86032  0.42505  1.0000
  H   H141      1.0  0.80088  0.84202  0.42431  1.0000
  H   H142      1.0  0.73924  0.81701  0.24766  1.0000
  H   H143      1.0  0.75684  0.79829  0.25037  1.0000
  H   H144      1.0  0.68938  0.81746  0.25012  1.0000
  H   H145      1.0  0.65309  0.79894  0.25395  1.0000
  H   H146      1.0  0.65338  0.84218  0.43291  1.0000
  H   H147      1.0  0.68974  0.86024  0.43276  1.0000
  H   H148      1.0  0.71889  0.88115  0.33730  1.0000
  H   H149      1.0  0.77411  0.88092  0.32713  1.0000
  H   H150      1.0  0.71882  0.82579  0.34644  1.0000
  C   C180      1.0  0.85769  0.74233  0.33409  1.0000
  C   C181      1.0  0.84725  0.72074  0.33713  1.0000
  C   C182      1.0  0.85759  0.70949  0.33993  1.0000
  C   C183      1.0  0.87919  0.72067  0.34047  1.0000
  C   C184      1.0  0.89045  0.74224  0.33671  1.0000
  C   C185      1.0  0.87928  0.75265  0.33324  1.0000
  C   C186      1.0  0.84666  0.68756  0.34173  1.0000
  C   C187      1.0  0.82875  0.67639  0.39370  1.0000
  C   C188      1.0  0.81805  0.65491  0.39478  1.0000
  C   C189      1.0  0.82500  0.64371  0.34477  1.0000
  C   C190      1.0  0.84269  0.65473  0.29183  1.0000
  C   C191      1.0  0.85329  0.67619  0.29051  1.0000
  C   C192      1.0  0.84683  0.75340  0.33224  1.0000
  C   C193      1.0  0.82886  0.74665  0.28068  1.0000
  C   C194      1.0  0.81822  0.75749  0.27953  1.0000
  C   C195      1.0  0.82529  0.77572  0.32895  1.0000
  C   C196      1.0  0.84304  0.78242  0.38149  1.0000
  C   C197      1.0  0.85359  0.77150  0.38289  1.0000
  C   C198      1.0  0.91238  0.75312  0.33668  1.0000
  C   C199      1.0  0.92373  0.77129  0.38682  1.0000
  C   C200      1.0  0.94520  0.78186  0.38737  1.0000
  C   C201      1.0  0.95622  0.77452  0.33862  1.0000
  C   C202      1.0  0.94504  0.75659  0.28729  1.0000
  C   C203      1.0  0.92357  0.74610  0.28661  1.0000
  H   H151      1.0  0.80524  0.75198  0.24173  1.0000
  H   H152      1.0  0.82342  0.73382  0.24201  1.0000
  H   H153      1.0  0.84852  0.79543  0.41897  1.0000
  H   H154      1.0  0.86618  0.77680  0.42304  1.0000
  H   H155      1.0  0.91643  0.77690  0.42508  1.0000
  H   H156      1.0  0.95278  0.79495  0.42435  1.0000
  H   H157      1.0  0.91615  0.73331  0.24768  1.0000
  H   H158      1.0  0.95248  0.75092  0.25039  1.0000
  H   H159      1.0  0.86584  0.68346  0.25010  1.0000
  H   H160      1.0  0.84807  0.64717  0.25392  1.0000
  H   H161      1.0  0.80513  0.64746  0.43291  1.0000
  H   H162      1.0  0.82342  0.68381  0.43277  1.0000
  H   H163      1.0  0.83166  0.71297  0.33728  1.0000
  H   H164      1.0  0.88711  0.76818  0.32715  1.0000
  H   H165      1.0  0.88694  0.71289  0.34643  1.0000
  C   C204      1.0  0.25145  0.10337  0.33408  1.0000
  C   C205      1.0  0.27304  0.11452  0.33713  1.0000
  C   C206      1.0  0.28428  0.13611  0.33991  1.0000
  C   C207      1.0  0.27310  0.14653  0.34042  1.0000
  C   C208      1.0  0.25153  0.13622  0.33668  1.0000
  C   C209      1.0  0.24112  0.11464  0.33322  1.0000
  C   C210      1.0  0.30621  0.14711  0.34173  1.0000
  C   C211      1.0  0.31738  0.14037  0.39370  1.0000
  C   C212      1.0  0.33886  0.15116  0.39480  1.0000
  C   C213      1.0  0.35006  0.16930  0.34480  1.0000
  C   C214      1.0  0.33904  0.17597  0.29184  1.0000
  C   C215      1.0  0.31758  0.16511  0.29053  1.0000
  C   C216      1.0  0.24037  0.08144  0.33222  1.0000
  C   C217      1.0  0.24712  0.07021  0.28068  1.0000
  C   C218      1.0  0.23629  0.04874  0.27953  1.0000
  C   C219      1.0  0.24065  0.14727  0.33665  1.0000
  C   C220      1.0  0.23717  0.17645  0.28725  1.0000
  C   C221      1.0  0.24767  0.16548  0.28657  1.0000
  H   H166      1.0  0.24179  0.04127  0.24174  1.0000
  H   H167      1.0  0.25995  0.07761  0.24201  1.0000
  H   H168      1.0  0.26046  0.17085  0.24766  1.0000
  H   H169      1.0  0.24285  0.18957  0.25037  1.0000
  H   H170      1.0  0.31031  0.17039  0.25009  1.0000
  H   H171      1.0  0.34661  0.18891  0.25392  1.0000
  H   H172      1.0  0.34631  0.14568  0.43292  1.0000
  H   H173      1.0  0.30996  0.12762  0.43276  1.0000
  H   H174      1.0  0.28080  0.10670  0.33728  1.0000
  H   H175      1.0  0.22559  0.10694  0.32713  1.0000
  H   H176      1.0  0.28088  0.16206  0.34642  1.0000
  C   C222      1.0  0.89040  0.13608  0.33410  1.0000
  C   C223      1.0  0.87925  0.14652  0.33715  1.0000
  C   C224      1.0  0.85767  0.13617  0.33995  1.0000
  C   C225      1.0  0.84725  0.11458  0.34045  1.0000
  C   C226      1.0  0.85756  0.10332  0.33670  1.0000
  C   C227      1.0  0.87913  0.11449  0.33323  1.0000
  C   C228      1.0  0.84666  0.14711  0.34178  1.0000
  C   C229      1.0  0.85340  0.16501  0.39377  1.0000
  C   C230      1.0  0.84263  0.17572  0.39484  1.0000
  C   C231      1.0  0.82449  0.16878  0.34484  1.0000
  C   C232      1.0  0.81781  0.15109  0.29190  1.0000
  C   C233      1.0  0.82866  0.14047  0.29059  1.0000
  C   C234      1.0  0.91234  0.14694  0.33225  1.0000
  C   C235      1.0  0.92356  0.16491  0.28070  1.0000
  C   C236      1.0  0.94504  0.17555  0.27956  1.0000
  C   C237      1.0  0.95620  0.16848  0.32898  1.0000
  C   C238      1.0  0.94514  0.15072  0.38149  1.0000
  C   C239      1.0  0.92367  0.14018  0.38293  1.0000
  C   C240      1.0  0.84651  0.08139  0.33666  1.0000
  C   C241      1.0  0.85333  0.07004  0.38680  1.0000
  C   C242      1.0  0.84242  0.04857  0.38733  1.0000
  C   C243      1.0  0.82407  0.03755  0.33859  1.0000
  C   C244      1.0  0.81732  0.04873  0.28728  1.0000
  C   C245      1.0  0.82830  0.07020  0.28659  1.0000
  H   H177      1.0  0.95251  0.18853  0.24177  1.0000
  H   H178      1.0  0.91617  0.17035  0.24203  1.0000
  H   H179      1.0  0.95267  0.14524  0.41899  1.0000
  H   H180      1.0  0.91638  0.12758  0.42303  1.0000
  H   H181      1.0  0.86623  0.07734  0.42506  1.0000
  H   H182      1.0  0.84794  0.04099  0.42432  1.0000
  H   H183      1.0  0.82292  0.07762  0.24768  1.0000
  H   H184      1.0  0.80421  0.04129  0.25039  1.0000
  H   H185      1.0  0.82338  0.12793  0.25014  1.0000
  H   H186      1.0  0.80486  0.14571  0.25399  1.0000
  H   H187      1.0  0.84811  0.18865  0.43295  1.0000
  H   H188      1.0  0.86617  0.17035  0.43278  1.0000
  H   H189      1.0  0.88707  0.16211  0.33731  1.0000
  H   H190      1.0  0.88684  0.10666  0.32714  1.0000
  H   H191      1.0  0.83171  0.10683  0.34645  1.0000
  C   C246      1.0  0.25064  0.52934  0.34867  1.0000
  C   C247      1.0  0.24052  0.50787  0.34240  1.0000
  C   C248      1.0  0.25145  0.49714  0.33886  1.0000
  C   C249      1.0  0.27310  0.50877  0.34014  1.0000
  C   C250      1.0  0.28367  0.53027  0.34698  1.0000
  C   C251      1.0  0.27212  0.54019  0.34982  1.0000
  C   C252      1.0  0.24092  0.47523  0.33664  1.0000
  C   C253      1.0  0.22304  0.46386  0.28467  1.0000
  C   C254      1.0  0.23737  0.44259  0.38684  1.0000
  C   C255      1.0  0.24777  0.46405  0.38793  1.0000
  C   C256      1.0  0.24015  0.54052  0.35377  1.0000
  C   C257      1.0  0.22823  0.54072  0.28125  1.0000
  C   C258      1.0  0.22685  0.56977  0.34691  1.0000
  C   C259      1.0  0.23817  0.56906  0.42080  1.0000
  C   C260      1.0  0.24462  0.55462  0.42438  1.0000
  C   C261      1.0  0.30538  0.54233  0.35076  1.0000
  C   C262      1.0  0.31472  0.55771  0.41684  1.0000
  C   C263      1.0  0.33551  0.57239  0.41186  1.0000
  C   C264      1.0  0.34770  0.57206  0.34092  1.0000
  C   C265      1.0  0.33878  0.55594  0.27809  1.0000
  C   C266      1.0  0.31786  0.54129  0.28279  1.0000
  H   H192      1.0  0.22550  0.53135  0.22727  1.0000
  H   H193      1.0  0.24290  0.57986  0.47027  1.0000
  H   H194      1.0  0.25374  0.55532  0.47658  1.0000
  H   H195      1.0  0.30620  0.55907  0.46676  1.0000
  H   H196      1.0  0.34139  0.58399  0.45779  1.0000
  H   H197      1.0  0.31154  0.53071  0.23262  1.0000
  H   H198      1.0  0.34720  0.55548  0.22541  1.0000
  H   H199      1.0  0.26026  0.47145  0.42854  1.0000
  H   H200      1.0  0.24287  0.43516  0.42494  1.0000
  H   H201      1.0  0.22493  0.49996  0.34407  1.0000
  H   H202      1.0  0.27957  0.55581  0.35158  1.0000
  H   H203      1.0  0.28141  0.50151  0.33704  1.0000
  C   C267      1.0  0.46443  0.70931  0.34867  1.0000
  C   C268      1.0  0.48591  0.72067  0.34238  1.0000
  C   C269      1.0  0.49663  0.74232  0.33883  1.0000
  C   C270      1.0  0.48500  0.75235  0.34011  1.0000
  C   C271      1.0  0.46351  0.74142  0.34697  1.0000
  C   C272      1.0  0.45358  0.71995  0.34982  1.0000
  C   C273      1.0  0.51854  0.75370  0.33662  1.0000
  C   C274      1.0  0.52991  0.74719  0.28466  1.0000
  C   C275      1.0  0.55138  0.75818  0.28378  1.0000
  C   C276      1.0  0.56239  0.77632  0.33397  1.0000
  C   C277      1.0  0.55119  0.78279  0.38681  1.0000
  C   C278      1.0  0.52972  0.77173  0.38790  1.0000
  C   C279      1.0  0.45324  0.68764  0.35385  1.0000
  C   C280      1.0  0.45305  0.67553  0.28132  1.0000
  C   C281      1.0  0.43852  0.65457  0.27768  1.0000
  C   C282      1.0  0.42400  0.64510  0.34694  1.0000
  C   C283      1.0  0.42470  0.65713  0.42084  1.0000
  C   C284      1.0  0.43915  0.67802  0.42444  1.0000
  C   C285      1.0  0.45145  0.75107  0.35080  1.0000
  C   C286      1.0  0.43608  0.74505  0.41691  1.0000
  C   C287      1.0  0.42141  0.75117  0.41203  1.0000
  C   C288      1.0  0.42171  0.76365  0.34101  1.0000
  C   C289      1.0  0.43782  0.77085  0.27814  1.0000
  C   C290      1.0  0.45249  0.76459  0.28283  1.0000
  H   H204      1.0  0.43796  0.64646  0.22180  1.0000
  H   H205      1.0  0.46242  0.68218  0.22734  1.0000
  H   H206      1.0  0.41390  0.65106  0.47029  1.0000
  H   H207      1.0  0.43844  0.68643  0.47662  1.0000
  H   H208      1.0  0.43474  0.73518  0.46688  1.0000
  H   H209      1.0  0.40980  0.74544  0.45795  1.0000
  H   H210      1.0  0.46303  0.76881  0.23254  1.0000
  H   H211      1.0  0.43825  0.77969  0.22537  1.0000
  H   H212      1.0  0.52233  0.77683  0.42850  1.0000
  H   H213      1.0  0.55861  0.79572  0.42490  1.0000
  H   H214      1.0  0.55897  0.75283  0.24580  1.0000
  H   H215      1.0  0.52263  0.73439  0.24574  1.0000
  H   H216      1.0  0.49381  0.71298  0.34407  1.0000
  H   H217      1.0  0.43796  0.71178  0.35165  1.0000
  H   H218      1.0  0.49227  0.76792  0.33701  1.0000
  C   C291      1.0  0.28446  0.74313  0.34872  1.0000
  C   C292      1.0  0.27310  0.75325  0.34242  1.0000
  C   C293      1.0  0.25145  0.74232  0.33886  1.0000
  C   C294      1.0  0.24143  0.72067  0.34016  1.0000
  C   C295      1.0  0.25235  0.71010  0.34702  1.0000
  C   C296      1.0  0.27383  0.72165  0.34987  1.0000
  C   C297      1.0  0.24007  0.75285  0.33662  1.0000
  C   C298      1.0  0.24657  0.77072  0.28465  1.0000
  C   C299      1.0  0.23558  0.78121  0.28376  1.0000
  C   C300      1.0  0.30613  0.75362  0.35392  1.0000
  C   C301      1.0  0.31824  0.76554  0.28140  1.0000
  C   C302      1.0  0.33920  0.77195  0.27772  1.0000
  C   C303      1.0  0.34867  0.76690  0.34702  1.0000
  C   C304      1.0  0.33664  0.75561  0.42097  1.0000
  C   C305      1.0  0.31575  0.74916  0.42456  1.0000
  C   C306      1.0  0.24271  0.68839  0.35082  1.0000
  C   C307      1.0  0.24875  0.67905  0.41689  1.0000
  C   C308      1.0  0.24263  0.65826  0.41199  1.0000
  C   C309      1.0  0.23013  0.64607  0.34101  1.0000
  C   C310      1.0  0.22293  0.65499  0.27817  1.0000
  C   C311      1.0  0.22917  0.67591  0.28294  1.0000
  H   H219      1.0  0.34731  0.77947  0.22180  1.0000
  H   H220      1.0  0.31160  0.76822  0.22728  1.0000
  H   H221      1.0  0.34271  0.75088  0.47046  1.0000
  H   H222      1.0  0.30734  0.74005  0.47676  1.0000
  H   H223      1.0  0.25860  0.68757  0.46691  1.0000
  H   H224      1.0  0.24834  0.65237  0.45798  1.0000
  H   H225      1.0  0.22496  0.68222  0.23257  1.0000
  H   H226      1.0  0.24093  0.79414  0.24577  1.0000
  H   H227      1.0  0.25937  0.77624  0.24573  1.0000
  H   H228      1.0  0.28078  0.76884  0.34410  1.0000
  H   H229      1.0  0.28201  0.71421  0.35170  1.0000
  H   H230      1.0  0.22586  0.71236  0.33702  1.0000
  C   C312      1.0  0.74905  0.45851  0.34877  1.0000
  C   C313      1.0  0.75916  0.47998  0.34245  1.0000
  C   C314      1.0  0.74823  0.49070  0.33889  1.0000
  C   C315      1.0  0.72658  0.47908  0.34018  1.0000
  C   C316      1.0  0.71601  0.45758  0.34705  1.0000
  C   C317      1.0  0.72756  0.44766  0.34993  1.0000
  C   C318      1.0  0.75877  0.51262  0.33664  1.0000
  C   C319      1.0  0.77664  0.52398  0.28469  1.0000
  C   C320      1.0  0.78713  0.54546  0.28379  1.0000
  C   C321      1.0  0.77999  0.55646  0.33399  1.0000
  C   C322      1.0  0.76232  0.54526  0.38682  1.0000
  C   C323      1.0  0.75192  0.52380  0.38792  1.0000
  C   C324      1.0  0.75953  0.44732  0.35398  1.0000
  C   C325      1.0  0.77147  0.44715  0.28150  1.0000
  C   C326      1.0  0.77788  0.43260  0.27781  1.0000
  C   C327      1.0  0.77279  0.41805  0.34701  1.0000
  C   C328      1.0  0.76150  0.41878  0.42098  1.0000
  C   C329      1.0  0.75506  0.43323  0.42457  1.0000
  C   C330      1.0  0.69431  0.44552  0.35090  1.0000
  C   C331      1.0  0.68496  0.43016  0.41706  1.0000
  C   C332      1.0  0.66418  0.41547  0.41202  1.0000
  C   C333      1.0  0.65200  0.41578  0.34104  1.0000
  C   C334      1.0  0.66090  0.43191  0.27825  1.0000
  C   C335      1.0  0.68183  0.44656  0.28292  1.0000
  H   H231      1.0  0.78540  0.43201  0.22189  1.0000
  H   H232      1.0  0.77416  0.45648  0.22742  1.0000
  H   H233      1.0  0.75676  0.40796  0.47036  1.0000
  H   H234      1.0  0.74594  0.43252  0.47673  1.0000
  H   H235      1.0  0.69349  0.42882  0.46701  1.0000
  H   H236      1.0  0.65829  0.40388  0.45806  1.0000
  H   H237      1.0  0.68814  0.45709  0.23257  1.0000
  H   H238      1.0  0.65250  0.43232  0.22539  1.0000
  H   H239      1.0  0.73943  0.51640  0.42854  1.0000
  H   H240      1.0  0.75682  0.55269  0.42494  1.0000
  H   H241      1.0  0.80006  0.55304  0.24580  1.0000
  H   H242      1.0  0.78215  0.51670  0.24576  1.0000
  H   H243      1.0  0.77475  0.48789  0.34413  1.0000
  H   H244      1.0  0.72011  0.43204  0.35178  1.0000
  H   H245      1.0  0.71828  0.48634  0.33704  1.0000
  C   C336      1.0  0.53526  0.27857  0.34866  1.0000
  C   C337      1.0  0.51379  0.26720  0.34230  1.0000
  C   C338      1.0  0.50307  0.24555  0.33882  1.0000
  C   C339      1.0  0.51470  0.23553  0.34012  1.0000
  C   C340      1.0  0.53619  0.24646  0.34697  1.0000
  C   C341      1.0  0.54612  0.26794  0.34984  1.0000
  C   C342      1.0  0.48115  0.23417  0.33660  1.0000
  C   C343      1.0  0.46978  0.24068  0.28464  1.0000
  C   C344      1.0  0.44831  0.22968  0.28376  1.0000
  C   C345      1.0  0.43731  0.21154  0.33396  1.0000
  C   C346      1.0  0.44851  0.20508  0.38681  1.0000
  C   C347      1.0  0.46998  0.21615  0.38792  1.0000
  C   C348      1.0  0.54644  0.30024  0.35385  1.0000
  C   C349      1.0  0.54660  0.31234  0.28137  1.0000
  C   C350      1.0  0.56116  0.33330  0.27768  1.0000
  C   C351      1.0  0.57567  0.34277  0.34700  1.0000
  C   C352      1.0  0.57495  0.33075  0.42095  1.0000
  C   C353      1.0  0.56050  0.30986  0.42455  1.0000
  C   C354      1.0  0.54826  0.23683  0.35082  1.0000
  C   C355      1.0  0.56364  0.24286  0.41688  1.0000
  C   C356      1.0  0.57830  0.23673  0.41203  1.0000
  C   C357      1.0  0.57800  0.22425  0.34100  1.0000
  C   C358      1.0  0.56188  0.21703  0.27818  1.0000
  C   C359      1.0  0.54723  0.22331  0.28285  1.0000
  H   H246      1.0  0.56173  0.34142  0.22185  1.0000
  H   H247      1.0  0.53728  0.30570  0.22727  1.0000
  H   H248      1.0  0.58576  0.33681  0.47036  1.0000
  H   H249      1.0  0.56124  0.30144  0.47665  1.0000
  H   H250      1.0  0.56497  0.25271  0.46691  1.0000
  H   H251      1.0  0.58991  0.24245  0.45796  1.0000
  H   H252      1.0  0.53667  0.21906  0.23262  1.0000
  H   H253      1.0  0.56144  0.20819  0.22541  1.0000
  H   H254      1.0  0.47738  0.21105  0.42849  1.0000
  H   H255      1.0  0.44109  0.19215  0.42492  1.0000
  H   H256      1.0  0.44072  0.23502  0.24576  1.0000
  H   H257      1.0  0.47706  0.25346  0.24567  1.0000
  H   H258      1.0  0.50587  0.27489  0.34405  1.0000
  H   H259      1.0  0.56173  0.27612  0.35168  1.0000
  H   H260      1.0  0.50744  0.21997  0.33701  1.0000
  C   C360      1.0  0.71521  0.24469  0.34864  1.0000
  C   C361      1.0  0.72657  0.23459  0.34232  1.0000
  C   C362      1.0  0.74822  0.24552  0.33883  1.0000
  C   C363      1.0  0.75824  0.26717  0.34011  1.0000
  C   C364      1.0  0.74731  0.27774  0.34690  1.0000
  C   C365      1.0  0.72583  0.26618  0.34976  1.0000
  C   C366      1.0  0.75961  0.23500  0.33662  1.0000
  C   C367      1.0  0.75310  0.21712  0.28469  1.0000
  C   C368      1.0  0.76410  0.20664  0.28382  1.0000
  C   C369      1.0  0.78224  0.21378  0.33401  1.0000
  C   C370      1.0  0.78871  0.23146  0.38684  1.0000
  C   C371      1.0  0.77763  0.24185  0.38794  1.0000
  C   C372      1.0  0.69354  0.23420  0.35379  1.0000
  C   C373      1.0  0.68142  0.22229  0.28125  1.0000
  C   C374      1.0  0.66046  0.21587  0.27764  1.0000
  C   C375      1.0  0.65100  0.22091  0.34697  1.0000
  C   C376      1.0  0.66303  0.23220  0.42092  1.0000
  C   C377      1.0  0.68392  0.23866  0.42446  1.0000
  C   C378      1.0  0.75694  0.29944  0.35068  1.0000
  C   C379      1.0  0.75088  0.30880  0.41661  1.0000
  C   C380      1.0  0.75700  0.32959  0.41161  1.0000
  C   C381      1.0  0.76954  0.34177  0.34072  1.0000
  C   C382      1.0  0.77675  0.33285  0.27800  1.0000
  C   C383      1.0  0.77050  0.31192  0.28281  1.0000
  H   H261      1.0  0.65234  0.20830  0.22183  1.0000
  H   H262      1.0  0.68805  0.21954  0.22727  1.0000
  H   H263      1.0  0.65698  0.23698  0.47026  1.0000
  H   H264      1.0  0.69234  0.24781  0.47655  1.0000
  H   H265      1.0  0.74102  0.30028  0.46662  1.0000
  H   H266      1.0  0.75131  0.33549  0.45758  1.0000
  H   H267      1.0  0.77475  0.30561  0.23261  1.0000
  H   H268      1.0  0.78565  0.34126  0.22535  1.0000
  H   H269      1.0  0.78274  0.25435  0.42849  1.0000
  H   H270      1.0  0.80164  0.23696  0.42494  1.0000
  H   H271      1.0  0.75876  0.19371  0.24583  1.0000
  H   H272      1.0  0.74031  0.21161  0.24573  1.0000
  H   H273      1.0  0.71889  0.21900  0.34409  1.0000
  H   H274      1.0  0.71765  0.27362  0.35153  1.0000
  H   H275      1.0  0.77381  0.27549  0.33699  1.0000
  C   C384      1.0  0.62783  0.80769  0.34480  1.0000
  C   C385      1.0  0.61582  0.79909  0.42327  1.0000
  C   C386      1.0  0.59432  0.78925  0.41645  1.0000
  H   H276      1.0  0.58576  0.78277  0.47292  1.0000
  C   C387      1.0  0.62439  0.79895  0.51305  1.0000
  H   H277      1.0  0.64078  0.80496  0.51242  1.0000
  H   H278      1.0  0.61737  0.78335  0.53829  1.0000
  H   H279      1.0  0.62112  0.80803  0.55987  1.0000
  C   C388      1.0  0.81406  0.62190  0.34480  1.0000
  C   C389      1.0  0.81067  0.60990  0.42327  1.0000
  C   C390      1.0  0.79901  0.58840  0.41645  1.0000
  H   H280      1.0  0.79692  0.57984  0.47292  1.0000
  C   C391      1.0  0.81937  0.61847  0.51303  1.0000
  H   H281      1.0  0.82975  0.63486  0.51240  1.0000
  H   H282      1.0  0.82795  0.61145  0.53824  1.0000
  H   H283      1.0  0.80703  0.61520  0.55987  1.0000
  C   C392      1.0  0.37187  0.18017  0.34480  1.0000
  C   C393      1.0  0.38387  0.18877  0.42327  1.0000
  C   C394      1.0  0.40537  0.19861  0.41644  1.0000
  H   H284      1.0  0.41393  0.20509  0.47290  1.0000
  C   C395      1.0  0.37531  0.18891  0.51303  1.0000
  H   H285      1.0  0.35892  0.18290  0.51242  1.0000
  H   H286      1.0  0.38233  0.20451  0.53826  1.0000
  H   H287      1.0  0.37858  0.17984  0.55988  1.0000
  C   C396      1.0  0.81362  0.17972  0.34486  1.0000
  C   C397      1.0  0.80501  0.18312  0.42333  1.0000
  C   C398      1.0  0.79517  0.19478  0.41649  1.0000
  H   H288      1.0  0.78870  0.19686  0.47296  1.0000
  C   C399      1.0  0.80488  0.17442  0.51309  1.0000
  H   H289      1.0  0.81089  0.16404  0.51248  1.0000
  H   H290      1.0  0.78928  0.16584  0.53832  1.0000
  H   H291      1.0  0.81395  0.18676  0.55993  1.0000
  H   H292      1.0  0.22375  0.18290  0.50672  1.0000
  C   C400      1.0  0.81301  0.01574  0.33869  1.0000
  C   C401      1.0  0.80462  0.00381  0.41749  1.0000
  C   C402      1.0  0.79473  0.98230  0.41093  1.0000
  H   H293      1.0  0.78843  0.97379  0.46771  1.0000
  C   C403      1.0  0.80481  0.01246  0.50745  1.0000
  H   H294      1.0  0.81088  0.02886  0.50672  1.0000
  H   H295      1.0  0.81400  0.00918  0.55355  1.0000
  H   H296      1.0  0.78930  0.00551  0.53366  1.0000
  C   C404      1.0  0.97803  0.78527  0.33871  1.0000
  C   C405      1.0  0.98997  0.78882  0.41751  1.0000
  C   C406      1.0  0.98132  0.78036  0.50746  1.0000
  H   H297      1.0  0.96492  0.77002  0.50674  1.0000
  H   H298      1.0  0.98459  0.79282  0.55357  1.0000
  H   H299      1.0  0.98827  0.77180  0.53367  1.0000
  C   C407      1.0  0.79120  0.80709  0.33867  1.0000
  C   C408      1.0  0.79474  0.79870  0.41748  1.0000
  C   C409      1.0  0.80635  0.78881  0.41092  1.0000
  H   H300      1.0  0.80857  0.78251  0.46769  1.0000
  C   C410      1.0  0.78628  0.79889  0.50743  1.0000
  H   H301      1.0  0.77595  0.80496  0.50670  1.0000
  H   H302      1.0  0.79875  0.80808  0.55353  1.0000
  H   H303      1.0  0.77772  0.78338  0.53364  1.0000
  C   C411      1.0  0.98822  0.18741  0.41095  1.0000
  H   H304      1.0  0.97971  0.18520  0.46772  1.0000
  C   C412      1.0  0.22372  0.58677  0.33774  1.0000
  C   C413      1.0  0.40700  0.62497  0.33775  1.0000
  C   C414      1.0  0.40157  0.60956  0.40391  1.0000
  C   C415      1.0  0.38218  0.59177  0.39939  1.0000
  H   H305      1.0  0.37807  0.58101  0.44888  1.0000
  C   C416      1.0  0.41513  0.61110  0.47940  1.0000
  H   H306      1.0  0.43034  0.62438  0.47460  1.0000
  H   H307      1.0  0.41690  0.59766  0.48028  1.0000
  H   H308      1.0  0.40838  0.61190  0.54287  1.0000
  C   C417      1.0  0.36880  0.77003  0.33780  1.0000
  C   C418      1.0  0.38421  0.78002  0.40392  1.0000
  C   C419      1.0  0.40201  0.77843  0.39942  1.0000
  H   H309      1.0  0.41277  0.78509  0.44888  1.0000
  C   C420      1.0  0.38268  0.79206  0.47935  1.0000
  H   H310      1.0  0.36940  0.79400  0.47453  1.0000
  H   H311      1.0  0.39612  0.80727  0.48017  1.0000
  H   H312      1.0  0.38188  0.78453  0.54286  1.0000
  C   C421      1.0  0.77593  0.40105  0.33772  1.0000
  C   C422      1.0  0.78592  0.39563  0.40383  1.0000
  C   C423      1.0  0.78433  0.37624  0.39921  1.0000
  H   H313      1.0  0.79098  0.37212  0.44868  1.0000
  C   C424      1.0  0.79793  0.40918  0.47937  1.0000
  H   H314      1.0  0.79987  0.42440  0.47461  1.0000
  H   H315      1.0  0.81315  0.41095  0.48024  1.0000
  H   H316      1.0  0.79038  0.40242  0.54282  1.0000
  C   C425      1.0  0.59268  0.36291  0.33780  1.0000
  C   C426      1.0  0.59811  0.37831  0.40395  1.0000
  C   C427      1.0  0.61751  0.39610  0.39947  1.0000
  H   H317      1.0  0.62162  0.40686  0.44894  1.0000
  C   C428      1.0  0.58454  0.37678  0.47940  1.0000
  H   H318      1.0  0.56932  0.36351  0.47457  1.0000
  H   H319      1.0  0.58278  0.39023  0.48025  1.0000
  H   H320      1.0  0.59128  0.37597  0.54290  1.0000
  C   C429      1.0  0.63087  0.21779  0.33778  1.0000
  C   C430      1.0  0.61546  0.20783  0.40397  1.0000
  C   C431      1.0  0.59768  0.20944  0.39947  1.0000
  H   H321      1.0  0.58692  0.20280  0.44896  1.0000
  C   C432      1.0  0.61699  0.19580  0.47944  1.0000
  H   H322      1.0  0.63026  0.19384  0.47460  1.0000
  H   H323      1.0  0.60354  0.18059  0.48033  1.0000
  H   H324      1.0  0.61781  0.20335  0.54292  1.0000
