data_image0
_chemical_formula_structural       C2HC2HC2H4C2HC2HC2H4C2HC2HC2H4C8H4C8H4C8H4C2HC2HC2H4C2HC2HC2H4C2HC2HC2H4C2HC2HC2H4C2HC2HC2H4C2HC2HC2H4C8H4C8H4C8H4C8H4C8H4C8H4C2HC2HC2H4C2HC2HC2H4C2HC2HC2H4C2HC2HC2H4C2HC2HC2H4C2HC2HC2H4CNCNCNCNCNCNCNCNCNCNCNCNCNCNCNCNCNCNCNCNCNCNCNCNCNCNCNCNCNCNCNCNCNCNCNCNCNCNCNCNCNCNCNCNCNCNCNCNC8H4C8H4C8H4C2HC2HC2H4C2HC2HC2H4C2HC2HC2H4C8H4C8H4C8H4C8H4C8H4C8H4C2HC2HC2H4C2HC2HC2H4C2HC2HC2H4C2HC2HC2H4C2HC2HC2H4C2HC2HC2H4C8H4C8H4C8H4C8H4C8H4C8H4
_chemical_formula_sum              "C384 H240 N48"
_cell_length_a       63.0637
_cell_length_b       63.0637
_cell_length_c       14.9267
_cell_angle_alpha    90
_cell_angle_beta     90
_cell_angle_gamma    120

_space_group_name_H-M_alt    "P 1"
_space_group_IT_number       1

loop_
  _space_group_symop_operation_xyz
  'x, y, z'

loop_
  _atom_site_type_symbol
  _atom_site_label
  _atom_site_symmetry_multiplicity
  _atom_site_fract_x
  _atom_site_fract_y
  _atom_site_fract_z
  _atom_site_occupancy
  C   C1        1.0  0.98654  0.11921  0.29102  1.0000
  C   C2        1.0  0.98588  0.14139  0.29256  1.0000
  H   H1        1.0  0.97161  0.14190  0.26203  1.0000
  C   C3        1.0  0.98388  0.04975  0.30918  1.0000
  C   C4        1.0  0.98447  0.07256  0.30844  1.0000
  H   H2        1.0  0.96767  0.03418  0.29548  1.0000
  C   C5        1.0  0.96159  0.07323  0.29002  1.0000
  C   C6        1.0  0.96693  0.09741  0.24377  1.0000
  H   H3        1.0  0.95227  0.07142  0.35375  1.0000
  H   H4        1.0  0.94920  0.05797  0.24707  1.0000
  H   H5        1.0  0.94992  0.09799  0.24067  1.0000
  H   H6        1.0  0.97301  0.09754  0.17499  1.0000
  C   C7        1.0  0.88694  0.86856  0.29100  1.0000
  C   C8        1.0  0.86475  0.84572  0.29254  1.0000
  H   H7        1.0  0.86425  0.83095  0.26201  1.0000
  C   C9        1.0  0.95639  0.93536  0.30918  1.0000
  C   C10       1.0  0.93359  0.91314  0.30843  1.0000
  H   H8        1.0  0.97197  0.93472  0.29548  1.0000
  C   C11       1.0  0.93292  0.88960  0.29000  1.0000
  C   C12       1.0  0.90874  0.87076  0.24375  1.0000
  H   H9        1.0  0.93473  0.88208  0.35373  1.0000
  H   H10       1.0  0.94817  0.89245  0.24706  1.0000
  H   H11       1.0  0.90815  0.85316  0.24064  1.0000
  H   H12       1.0  0.90861  0.87671  0.17497  1.0000
  C   C13       1.0  0.13759  0.01961  0.29101  1.0000
  C   C14       1.0  0.16043  0.02026  0.29255  1.0000
  H   H13       1.0  0.17520  0.03453  0.26202  1.0000
  C   C15       1.0  0.07079  0.02227  0.30919  1.0000
  C   C16       1.0  0.09301  0.02167  0.30845  1.0000
  H   H14       1.0  0.07143  0.03848  0.29550  1.0000
  C   C17       1.0  0.11655  0.04455  0.29002  1.0000
  C   C18       1.0  0.13539  0.03921  0.24377  1.0000
  H   H15       1.0  0.12407  0.05388  0.35376  1.0000
  H   H16       1.0  0.11370  0.05695  0.24709  1.0000
  H   H17       1.0  0.15299  0.05623  0.24067  1.0000
  H   H18       1.0  0.12945  0.03313  0.17500  1.0000
  C   C19       1.0  0.04698  0.25270  0.35209  1.0000
  C   C20       1.0  0.06933  0.25885  0.30952  1.0000
  C   C21       1.0  0.08921  0.28313  0.31067  1.0000
  C   C22       1.0  0.08785  0.30223  0.35595  1.0000
  C   C23       1.0  0.10686  0.32783  0.35217  1.0000
  C   C24       1.0  0.13163  0.33592  0.32998  1.0000
  C   C25       1.0  0.14957  0.36101  0.32904  1.0000
  C   C26       1.0  0.14363  0.37936  0.34909  1.0000
  H   H19       1.0  0.13720  0.32359  0.31645  1.0000
  H   H20       1.0  0.16718  0.36574  0.31320  1.0000
  H   H21       1.0  0.07083  0.24598  0.27265  1.0000
  H   H22       1.0  0.10432  0.28681  0.27386  1.0000
  C   C27       1.0  0.75344  0.79551  0.35211  1.0000
  C   C28       1.0  0.74729  0.81171  0.30949  1.0000
  C   C29       1.0  0.72302  0.80731  0.31063  1.0000
  C   C30       1.0  0.70391  0.78685  0.35594  1.0000
  C   C31       1.0  0.67832  0.78026  0.35217  1.0000
  C   C32       1.0  0.67023  0.79694  0.32994  1.0000
  C   C33       1.0  0.64514  0.78979  0.32900  1.0000
  C   C34       1.0  0.62679  0.76550  0.34907  1.0000
  H   H23       1.0  0.68256  0.81485  0.31639  1.0000
  H   H24       1.0  0.64040  0.80266  0.31314  1.0000
  H   H25       1.0  0.76016  0.82608  0.27260  1.0000
  H   H26       1.0  0.71933  0.81873  0.27379  1.0000
  C   C35       1.0  0.21065  0.95917  0.35204  1.0000
  C   C36       1.0  0.19443  0.93681  0.30953  1.0000
  C   C37       1.0  0.19883  0.91693  0.31070  1.0000
  C   C38       1.0  0.21929  0.91829  0.35597  1.0000
  C   C39       1.0  0.22588  0.89928  0.35222  1.0000
  C   C40       1.0  0.20920  0.87451  0.33003  1.0000
  C   C41       1.0  0.21634  0.85657  0.32911  1.0000
  C   C42       1.0  0.24064  0.86251  0.34917  1.0000
  H   H27       1.0  0.19129  0.86894  0.31649  1.0000
  H   H28       1.0  0.20347  0.83896  0.31327  1.0000
  H   H29       1.0  0.18006  0.93531  0.27268  1.0000
  H   H30       1.0  0.18740  0.90182  0.27393  1.0000
  C   C43       1.0  0.29664  0.06440  0.26830  1.0000
  C   C44       1.0  0.27239  0.04447  0.26988  1.0000
  H   H31       1.0  0.26860  0.02867  0.23723  1.0000
  C   C45       1.0  0.37213  0.11779  0.30183  1.0000
  C   C46       1.0  0.34705  0.09971  0.29845  1.0000
  H   H32       1.0  0.38480  0.11275  0.28639  1.0000
  C   C47       1.0  0.34005  0.07414  0.27372  1.0000
  C   C48       1.0  0.31593  0.06200  0.21959  1.0000
  H   H33       1.0  0.33767  0.06372  0.33519  1.0000
  H   H34       1.0  0.35423  0.07352  0.23352  1.0000
  H   H35       1.0  0.31055  0.04288  0.20707  1.0000
  H   H36       1.0  0.31899  0.07115  0.15465  1.0000
  C   C49       1.0  0.77266  0.70950  0.26833  1.0000
  C   C50       1.0  0.77698  0.73375  0.26991  1.0000
  H   H37       1.0  0.76497  0.73754  0.23728  1.0000
  C   C51       1.0  0.75057  0.63402  0.30187  1.0000
  C   C52       1.0  0.75757  0.65910  0.29849  1.0000
  H   H38       1.0  0.73286  0.62135  0.28645  1.0000
  C   C53       1.0  0.73900  0.66609  0.27379  1.0000
  C   C54       1.0  0.75097  0.69021  0.21965  1.0000
  H   H39       1.0  0.73097  0.66848  0.33527  1.0000
  H   H40       1.0  0.72420  0.65192  0.23361  1.0000
  H   H41       1.0  0.73723  0.69559  0.20715  1.0000
  H   H42       1.0  0.75705  0.68715  0.15470  1.0000
  C   C55       1.0  0.94175  0.23347  0.26833  1.0000
  C   C56       1.0  0.96168  0.22916  0.26993  1.0000
  H   H43       1.0  0.97748  0.24118  0.23730  1.0000
  C   C57       1.0  0.88835  0.25556  0.30186  1.0000
  C   C58       1.0  0.90643  0.24857  0.29848  1.0000
  H   H44       1.0  0.89340  0.27328  0.28643  1.0000
  C   C59       1.0  0.93200  0.26714  0.27377  1.0000
  C   C60       1.0  0.94415  0.25517  0.21963  1.0000
  H   H45       1.0  0.94242  0.27517  0.33525  1.0000
  H   H46       1.0  0.93262  0.28194  0.23358  1.0000
  H   H47       1.0  0.96327  0.26891  0.20713  1.0000
  H   H48       1.0  0.93500  0.24908  0.15469  1.0000
  C   C61       1.0  0.26627  0.44947  0.29962  1.0000
  C   C62       1.0  0.24040  0.43765  0.30560  1.0000
  H   H49       1.0  0.22992  0.42246  0.26727  1.0000
  C   C63       1.0  0.34426  0.48104  0.30222  1.0000
  C   C64       1.0  0.31851  0.47020  0.30534  1.0000
  H   H50       1.0  0.35154  0.47075  0.27919  1.0000
  C   C65       1.0  0.30278  0.44426  0.27667  1.0000
  C   C66       1.0  0.27794  0.43962  0.23871  1.0000
  H   H51       1.0  0.29951  0.43243  0.33475  1.0000
  H   H52       1.0  0.31184  0.43928  0.22518  1.0000
  H   H53       1.0  0.26613  0.41996  0.22794  1.0000
  H   H54       1.0  0.28098  0.44876  0.17378  1.0000
  C   C67       1.0  0.55667  0.81803  0.29961  1.0000
  C   C68       1.0  0.56850  0.80398  0.30557  1.0000
  H   H55       1.0  0.58368  0.80868  0.26725  1.0000
  C   C69       1.0  0.52510  0.86445  0.30219  1.0000
  C   C70       1.0  0.53595  0.84953  0.30533  1.0000
  H   H56       1.0  0.53540  0.88202  0.27915  1.0000
  C   C71       1.0  0.56188  0.85974  0.27667  1.0000
  C   C72       1.0  0.56653  0.83956  0.23871  1.0000
  H   H57       1.0  0.57371  0.86830  0.33475  1.0000
  H   H58       1.0  0.56686  0.87379  0.22519  1.0000
  H   H59       1.0  0.58619  0.84741  0.22794  1.0000
  H   H60       1.0  0.55739  0.83345  0.17378  1.0000
  C   C73       1.0  0.18811  0.73987  0.29962  1.0000
  C   C74       1.0  0.20216  0.76574  0.30559  1.0000
  H   H61       1.0  0.19746  0.77623  0.26727  1.0000
  C   C75       1.0  0.14169  0.66188  0.30220  1.0000
  C   C76       1.0  0.15660  0.68764  0.30533  1.0000
  H   H62       1.0  0.12412  0.65460  0.27917  1.0000
  C   C77       1.0  0.14640  0.70337  0.27667  1.0000
  C   C78       1.0  0.16659  0.72820  0.23871  1.0000
  H   H63       1.0  0.13783  0.70663  0.33474  1.0000
  H   H64       1.0  0.13236  0.69430  0.22517  1.0000
  H   H65       1.0  0.15874  0.74001  0.22794  1.0000
  H   H66       1.0  0.17269  0.72516  0.17378  1.0000
  C   C79       1.0  0.44785  0.22782  0.30824  1.0000
  C   C80       1.0  0.46896  0.24249  0.25619  1.0000
  C   C81       1.0  0.48068  0.26815  0.25884  1.0000
  C   C82       1.0  0.47218  0.28037  0.31527  1.0000
  C   C83       1.0  0.48413  0.30675  0.32019  1.0000
  C   C84       1.0  0.50888  0.32249  0.29483  1.0000
  C   C85       1.0  0.51986  0.34814  0.30000  1.0000
  C   C86       1.0  0.50651  0.35927  0.33003  1.0000
  H   H67       1.0  0.51960  0.31558  0.27366  1.0000
  H   H68       1.0  0.53771  0.35863  0.28020  1.0000
  H   H69       1.0  0.47615  0.23460  0.21549  1.0000
  H   H70       1.0  0.49552  0.27764  0.21821  1.0000
  C   C87       1.0  0.78489  0.55830  0.30817  1.0000
  C   C88       1.0  0.77846  0.53719  0.25614  1.0000
  C   C89       1.0  0.79238  0.52546  0.25881  1.0000
  C   C90       1.0  0.81310  0.53396  0.31525  1.0000
  C   C91       1.0  0.82753  0.52201  0.32018  1.0000
  C   C92       1.0  0.81851  0.49726  0.29481  1.0000
  C   C93       1.0  0.83319  0.48628  0.29997  1.0000
  C   C94       1.0  0.85767  0.49963  0.33000  1.0000
  H   H71       1.0  0.80088  0.48654  0.27364  1.0000
  H   H72       1.0  0.82583  0.46843  0.28016  1.0000
  H   H73       1.0  0.76337  0.53000  0.21543  1.0000
  H   H74       1.0  0.78704  0.51062  0.21818  1.0000
  C   C95       1.0  0.77832  0.22125  0.30823  1.0000
  C   C96       1.0  0.76364  0.22768  0.25617  1.0000
  C   C97       1.0  0.73799  0.21375  0.25883  1.0000
  C   C98       1.0  0.72577  0.19303  0.31527  1.0000
  C   C99       1.0  0.69939  0.17860  0.32019  1.0000
  C   C100      1.0  0.68365  0.18761  0.29483  1.0000
  C   C101      1.0  0.65800  0.17294  0.30001  1.0000
  C   C102      1.0  0.64687  0.14846  0.33001  1.0000
  H   H75       1.0  0.69056  0.20525  0.27368  1.0000
  H   H76       1.0  0.64750  0.18029  0.28022  1.0000
  H   H77       1.0  0.77154  0.24277  0.21546  1.0000
  H   H78       1.0  0.72849  0.21909  0.21820  1.0000
  C   C103      1.0  0.13513  0.56158  0.33222  1.0000
  C   C104      1.0  0.12187  0.54002  0.28097  1.0000
  C   C105      1.0  0.12698  0.52082  0.28659  1.0000
  C   C106      1.0  0.14515  0.52203  0.34552  1.0000
  C   C107      1.0  0.15055  0.50238  0.35317  1.0000
  C   C108      1.0  0.13386  0.47790  0.32745  1.0000
  C   C109      1.0  0.14011  0.45942  0.33232  1.0000
  C   C110      1.0  0.16343  0.46464  0.36264  1.0000
  H   H79       1.0  0.11671  0.47297  0.30501  1.0000
  H   H80       1.0  0.12762  0.44222  0.31062  1.0000
  H   H81       1.0  0.10818  0.53801  0.23875  1.0000
  H   H82       1.0  0.11713  0.50599  0.24627  1.0000
  C   C111      1.0  0.44456  0.57478  0.33226  1.0000
  C   C112      1.0  0.46611  0.58308  0.28098  1.0000
  C   C113      1.0  0.48532  0.60739  0.28659  1.0000
  C   C114      1.0  0.48411  0.62435  0.34553  1.0000
  C   C115      1.0  0.50376  0.64939  0.35318  1.0000
  C   C116      1.0  0.52824  0.65718  0.32741  1.0000
  C   C117      1.0  0.54672  0.68191  0.33229  1.0000
  C   C118      1.0  0.54151  0.70002  0.36266  1.0000
  H   H83       1.0  0.53317  0.64497  0.30494  1.0000
  H   H84       1.0  0.56392  0.68662  0.31056  1.0000
  H   H85       1.0  0.46811  0.57140  0.23874  1.0000
  H   H86       1.0  0.50014  0.61237  0.24624  1.0000
  C   C119      1.0  0.43135  0.87099  0.33218  1.0000
  C   C120      1.0  0.42305  0.88425  0.28094  1.0000
  C   C121      1.0  0.39875  0.87915  0.28659  1.0000
  C   C122      1.0  0.38179  0.86098  0.34554  1.0000
  C   C123      1.0  0.35675  0.85559  0.35321  1.0000
  C   C124      1.0  0.34896  0.87228  0.32745  1.0000
  C   C125      1.0  0.32423  0.86603  0.33233  1.0000
  C   C126      1.0  0.30612  0.84271  0.36270  1.0000
  H   H87       1.0  0.36117  0.88942  0.30498  1.0000
  H   H88       1.0  0.31952  0.87852  0.31061  1.0000
  H   H89       1.0  0.43473  0.89793  0.23869  1.0000
  H   H90       1.0  0.39376  0.88899  0.24625  1.0000
  C   C127      1.0  0.54556  0.15922  0.28481  1.0000
  C   C128      1.0  0.56491  0.15398  0.29123  1.0000
  H   H91       1.0  0.58002  0.16323  0.25128  1.0000
  C   C129      1.0  0.48981  0.17922  0.28389  1.0000
  C   C130      1.0  0.50854  0.17314  0.28788  1.0000
  H   H92       1.0  0.49404  0.19602  0.25908  1.0000
  C   C131      1.0  0.53373  0.19117  0.25724  1.0000
  C   C132      1.0  0.54751  0.17832  0.22144  1.0000
  H   H93       1.0  0.54380  0.20291  0.31393  1.0000
  H   H94       1.0  0.53326  0.20285  0.20404  1.0000
  H   H95       1.0  0.56661  0.19220  0.20955  1.0000
  H   H96       1.0  0.53952  0.16951  0.15735  1.0000
  C   C133      1.0  0.61858  0.46059  0.28480  1.0000
  C   C134      1.0  0.59399  0.44124  0.29122  1.0000
  H   H97       1.0  0.58813  0.42612  0.25126  1.0000
  C   C135      1.0  0.69433  0.51633  0.28387  1.0000
  C   C136      1.0  0.66952  0.49761  0.28787  1.0000
  H   H98       1.0  0.70690  0.51211  0.25904  1.0000
  C   C137      1.0  0.66236  0.47241  0.25723  1.0000
  C   C138      1.0  0.63573  0.45864  0.22143  1.0000
  H   H99       1.0  0.66403  0.46234  0.31391  1.0000
  H   H100      1.0  0.67451  0.47288  0.20402  1.0000
  H   H101      1.0  0.63050  0.43953  0.20954  1.0000
  H   H102      1.0  0.63491  0.46663  0.15734  1.0000
  C   C139      1.0  0.84691  0.38756  0.28478  1.0000
  C   C140      1.0  0.85215  0.41214  0.29118  1.0000
  H   H103      1.0  0.84290  0.41800  0.25121  1.0000
  C   C141      1.0  0.82691  0.31181  0.28383  1.0000
  C   C142      1.0  0.83299  0.33662  0.28785  1.0000
  H   H104      1.0  0.81012  0.29924  0.25899  1.0000
  C   C143      1.0  0.81495  0.34377  0.25718  1.0000
  C   C144      1.0  0.82781  0.37040  0.22139  1.0000
  H   H105      1.0  0.80322  0.34210  0.31386  1.0000
  H   H106      1.0  0.80328  0.33163  0.20398  1.0000
  H   H107      1.0  0.81393  0.37563  0.20948  1.0000
  H   H108      1.0  0.83663  0.37123  0.15732  1.0000
  C   C145      1.0  0.02910  0.56680  0.28137  1.0000
  C   C146      1.0  0.05490  0.57887  0.27452  1.0000
  H   H109      1.0  0.06336  0.58832  0.21738  1.0000
  C   C147      1.0  0.95122  0.53115  0.30186  1.0000
  C   C148      1.0  0.97709  0.54502  0.30220  1.0000
  H   H110      1.0  0.94158  0.53568  0.25819  1.0000
  C   C149      1.0  0.99021  0.56605  0.23964  1.0000
  C   C150      1.0  0.01431  0.56790  0.20563  1.0000
  H   H111      1.0  0.99447  0.58286  0.27546  1.0000
  H   H112      1.0  0.97888  0.56447  0.18176  1.0000
  H   H113      1.0  0.02456  0.58495  0.16797  1.0000
  H   H114      1.0  0.01001  0.55268  0.16009  1.0000
  C   C151      1.0  0.43936  0.46355  0.28140  1.0000
  C   C152      1.0  0.42729  0.47729  0.27458  1.0000
  H   H115      1.0  0.41786  0.47632  0.21741  1.0000
  C   C153      1.0  0.47500  0.42132  0.30183  1.0000
  C   C154      1.0  0.46114  0.43332  0.30218  1.0000
  H   H116      1.0  0.47049  0.40717  0.25810  1.0000
  C   C155      1.0  0.44013  0.42543  0.23952  1.0000
  C   C156      1.0  0.43828  0.44769  0.20560  1.0000
  H   H117      1.0  0.42331  0.41287  0.27525  1.0000
  H   H118      1.0  0.44172  0.41571  0.18161  1.0000
  H   H119      1.0  0.42124  0.44090  0.16787  1.0000
  H   H120      1.0  0.45353  0.45864  0.16014  1.0000
  C   C157      1.0  0.54259  0.97703  0.28133  1.0000
  C   C158      1.0  0.52885  0.95123  0.27448  1.0000
  H   H121      1.0  0.52983  0.94277  0.21730  1.0000
  C   C159      1.0  0.58483  0.05491  0.30184  1.0000
  C   C160      1.0  0.57282  0.02904  0.30216  1.0000
  H   H122      1.0  0.59898  0.06455  0.25812  1.0000
  C   C161      1.0  0.58071  0.01592  0.23952  1.0000
  C   C162      1.0  0.55846  0.99182  0.20555  1.0000
  H   H123      1.0  0.59327  0.01165  0.27525  1.0000
  H   H124      1.0  0.59045  0.02725  0.18162  1.0000
  H   H125      1.0  0.56525  0.98157  0.16781  1.0000
  H   H126      1.0  0.54752  0.99612  0.16008  1.0000
  C   C163      1.0  0.98136  0.98077  0.32654  1.0000
  N   N1        1.0  0.00307  0.98091  0.32656  1.0000
  C   C164      1.0  0.02537  0.00182  0.32654  1.0000
  N   N2        1.0  0.02524  0.02339  0.32656  1.0000
  C   C165      1.0  0.00433  0.02479  0.32654  1.0000
  N   N3        1.0  0.98276  0.00308  0.32656  1.0000
  C   C166      1.0  0.98208  0.20713  0.32468  1.0000
  N   N4        1.0  0.98273  0.18582  0.32505  1.0000
  C   C167      1.0  0.00422  0.18551  0.33290  1.0000
  N   N5        1.0  0.02542  0.20755  0.34121  1.0000
  C   C168      1.0  0.02558  0.22923  0.34280  1.0000
  N   N6        1.0  0.00372  0.22825  0.33409  1.0000
  C   C169      1.0  0.79901  0.77618  0.32466  1.0000
  N   N7        1.0  0.82032  0.79814  0.32502  1.0000
  C   C170      1.0  0.82064  0.81995  0.33288  1.0000
  N   N8        1.0  0.79860  0.81910  0.34121  1.0000
  C   C171      1.0  0.77692  0.79759  0.34280  1.0000
  N   N9        1.0  0.77790  0.77671  0.33407  1.0000
  C   C172      1.0  0.22997  0.02406  0.32466  1.0000
  N   N10       1.0  0.20801  0.02342  0.32503  1.0000
  C   C173      1.0  0.18620  0.00192  0.33288  1.0000
  N   N11       1.0  0.18705  0.98073  0.34118  1.0000
  C   C174      1.0  0.20857  0.98056  0.34275  1.0000
  N   N12       1.0  0.22944  0.00242  0.33405  1.0000
  C   C175      1.0  0.20308  0.43749  0.35794  1.0000
  N   N13       1.0  0.18624  0.41317  0.35117  1.0000
  C   C176      1.0  0.16164  0.40491  0.35035  1.0000
  N   N14       1.0  0.15452  0.42209  0.35468  1.0000
  C   C177      1.0  0.17062  0.44652  0.36070  1.0000
  N   N15       1.0  0.19468  0.45348  0.36229  1.0000
  C   C178      1.0  0.56865  0.76681  0.35792  1.0000
  N   N16       1.0  0.59297  0.77430  0.35115  1.0000
  C   C179      1.0  0.60123  0.75796  0.35036  1.0000
  N   N17       1.0  0.58405  0.73366  0.35469  1.0000
  C   C180      1.0  0.55963  0.72533  0.36070  1.0000
  N   N18       1.0  0.55266  0.74243  0.36228  1.0000
  C   C181      1.0  0.23933  0.80306  0.35793  1.0000
  N   N19       1.0  0.23184  0.81989  0.35120  1.0000
  C   C182      1.0  0.24818  0.84450  0.35042  1.0000
  N   N20       1.0  0.27248  0.85162  0.35474  1.0000
  C   C183      1.0  0.28081  0.83552  0.36073  1.0000
  N   N21       1.0  0.26371  0.81146  0.36230  1.0000
  C   C184      1.0  0.43805  0.20208  0.31197  1.0000
  N   N22       1.0  0.41375  0.18519  0.31897  1.0000
  C   C185      1.0  0.40561  0.16062  0.32185  1.0000
  N   N23       1.0  0.42289  0.15360  0.31931  1.0000
  C   C186      1.0  0.44732  0.16978  0.31318  1.0000
  N   N24       1.0  0.45413  0.19379  0.30949  1.0000
  C   C187      1.0  0.76895  0.56810  0.31189  1.0000
  N   N25       1.0  0.77636  0.59240  0.31893  1.0000
  C   C188      1.0  0.75992  0.60054  0.32184  1.0000
  N   N26       1.0  0.73562  0.58325  0.31929  1.0000
  C   C189      1.0  0.72738  0.55883  0.31313  1.0000
  N   N27       1.0  0.74457  0.55202  0.30943  1.0000
  C   C190      1.0  0.80405  0.23719  0.31191  1.0000
  N   N28       1.0  0.82095  0.22978  0.31894  1.0000
  C   C191      1.0  0.84552  0.24621  0.32182  1.0000
  N   N29       1.0  0.85254  0.27051  0.31927  1.0000
  C   C192      1.0  0.83636  0.27876  0.31312  1.0000
  N   N30       1.0  0.81235  0.26157  0.30943  1.0000
  C   C193      1.0  0.12766  0.57935  0.33260  1.0000
  N   N31       1.0  0.14326  0.60404  0.33153  1.0000
  C   C194      1.0  0.13472  0.62017  0.32966  1.0000
  N   N32       1.0  0.11004  0.61085  0.33133  1.0000
  C   C195      1.0  0.09425  0.58647  0.33412  1.0000
  N   N33       1.0  0.10327  0.57105  0.33523  1.0000
  C   C196      1.0  0.42679  0.54954  0.33267  1.0000
  N   N34       1.0  0.40210  0.54045  0.33156  1.0000
  C   C197      1.0  0.38597  0.51578  0.32968  1.0000
  N   N35       1.0  0.39529  0.50042  0.33143  1.0000
  C   C198      1.0  0.41967  0.50902  0.33430  1.0000
  N   N36       1.0  0.43509  0.53346  0.33536  1.0000
  C   C199      1.0  0.45660  0.87847  0.33256  1.0000
  N   N37       1.0  0.46569  0.86286  0.33149  1.0000
  C   C200      1.0  0.49036  0.87141  0.32961  1.0000
  N   N38       1.0  0.50572  0.89609  0.33132  1.0000
  C   C201      1.0  0.49712  0.91188  0.33413  1.0000
  N   N39       1.0  0.47268  0.90285  0.33522  1.0000
  C   C202      1.0  0.58053  0.12726  0.34574  1.0000
  N   N40       1.0  0.60517  0.14229  0.33573  1.0000
  C   C203      1.0  0.62089  0.13324  0.33435  1.0000
  N   N41       1.0  0.61109  0.10855  0.34067  1.0000
  C   C204      1.0  0.58673  0.09311  0.34990  1.0000
  N   N42       1.0  0.57195  0.10288  0.35268  1.0000
  C   C205      1.0  0.55165  0.42562  0.34570  1.0000
  N   N43       1.0  0.54204  0.40097  0.33572  1.0000
  C   C206      1.0  0.51727  0.38525  0.33435  1.0000
  N   N44       1.0  0.50238  0.39505  0.34067  1.0000
  C   C207      1.0  0.51129  0.41941  0.34988  1.0000
  N   N45       1.0  0.53585  0.43419  0.35265  1.0000
  C   C208      1.0  0.87887  0.45448  0.34565  1.0000
  N   N46       1.0  0.86383  0.46410  0.33568  1.0000
  C   C209      1.0  0.87288  0.48887  0.33429  1.0000
  N   N47       1.0  0.89758  0.50376  0.34061  1.0000
  C   C210      1.0  0.91302  0.49484  0.34983  1.0000
  N   N48       1.0  0.90324  0.47029  0.35260  1.0000
  C   C211      1.0  0.00475  0.16300  0.33243  1.0000
  C   C212      1.0  0.02433  0.16142  0.37173  1.0000
  C   C213      1.0  0.02505  0.13943  0.37132  1.0000
  C   C214      1.0  0.00647  0.11783  0.32993  1.0000
  C   C215      1.0  0.00644  0.09474  0.32917  1.0000
  C   C216      1.0  0.02760  0.09284  0.34570  1.0000
  C   C217      1.0  0.02691  0.07015  0.34422  1.0000
  C   C218      1.0  0.00500  0.04794  0.32676  1.0000
  H   H127      1.0  0.04414  0.10810  0.35753  1.0000
  H   H128      1.0  0.04282  0.07008  0.35708  1.0000
  H   H129      1.0  0.03824  0.17631  0.40320  1.0000
  H   H130      1.0  0.03932  0.13947  0.40367  1.0000
  C   C219      1.0  0.84314  0.84298  0.33241  1.0000
  C   C220      1.0  0.84472  0.86415  0.37172  1.0000
  C   C221      1.0  0.86672  0.88685  0.37132  1.0000
  C   C222      1.0  0.88832  0.88987  0.32991  1.0000
  C   C223      1.0  0.91141  0.91293  0.32916  1.0000
  C   C224      1.0  0.91330  0.93598  0.34570  1.0000
  C   C225      1.0  0.93600  0.95799  0.34422  1.0000
  C   C226      1.0  0.95821  0.95830  0.32677  1.0000
  H   H131      1.0  0.89805  0.93728  0.35752  1.0000
  H   H132      1.0  0.93607  0.97396  0.35708  1.0000
  H   H133      1.0  0.82984  0.86316  0.40318  1.0000
  H   H134      1.0  0.86668  0.90108  0.40366  1.0000
  C   C227      1.0  0.16317  0.00139  0.33240  1.0000
  C   C228      1.0  0.14200  0.98181  0.37170  1.0000
  C   C229      1.0  0.11930  0.98110  0.37130  1.0000
  C   C230      1.0  0.11628  0.99968  0.32991  1.0000
  C   C231      1.0  0.09321  0.99970  0.32916  1.0000
  C   C232      1.0  0.07017  0.97855  0.34569  1.0000
  C   C233      1.0  0.04816  0.97923  0.34421  1.0000
  C   C234      1.0  0.04785  0.00114  0.32677  1.0000
  H   H135      1.0  0.06887  0.96200  0.35751  1.0000
  H   H136      1.0  0.03219  0.96333  0.35707  1.0000
  H   H137      1.0  0.14299  0.96790  0.40316  1.0000
  H   H138      1.0  0.10507  0.96682  0.40364  1.0000
  C   C235      1.0  0.06560  0.29573  0.40191  1.0000
  C   C236      1.0  0.04568  0.27150  0.39906  1.0000
  H   H139      1.0  0.02984  0.26753  0.43178  1.0000
  C   C237      1.0  0.11893  0.37134  0.37125  1.0000
  C   C238      1.0  0.10090  0.34625  0.37422  1.0000
  H   H140      1.0  0.11385  0.38394  0.38751  1.0000
  C   C239      1.0  0.07535  0.33916  0.39959  1.0000
  C   C240      1.0  0.06318  0.31479  0.45220  1.0000
  H   H141      1.0  0.06492  0.33709  0.33845  1.0000
  H   H142      1.0  0.07478  0.35315  0.44110  1.0000
  H   H143      1.0  0.04405  0.30935  0.46495  1.0000
  H   H144      1.0  0.07230  0.31754  0.51705  1.0000
  C   C241      1.0  0.71041  0.77111  0.40194  1.0000
  C   C242      1.0  0.73465  0.77542  0.39910  1.0000
  H   H145      1.0  0.73862  0.76355  0.43183  1.0000
  C   C243      1.0  0.63481  0.74882  0.37128  1.0000
  C   C244      1.0  0.65990  0.75589  0.37426  1.0000
  H   H146      1.0  0.62221  0.73115  0.38757  1.0000
  C   C245      1.0  0.66699  0.73743  0.39967  1.0000
  C   C246      1.0  0.69136  0.74963  0.45226  1.0000
  H   H147      1.0  0.66906  0.72905  0.33853  1.0000
  H   H148      1.0  0.65300  0.72287  0.44118  1.0000
  H   H149      1.0  0.69680  0.73595  0.46503  1.0000
  H   H150      1.0  0.68861  0.75601  0.51709  1.0000
  C   C247      1.0  0.23505  0.94054  0.40191  1.0000
  C   C248      1.0  0.23074  0.96047  0.39904  1.0000
  H   H151      1.0  0.24261  0.97631  0.43173  1.0000
  C   C249      1.0  0.25732  0.88721  0.37131  1.0000
  C   C250      1.0  0.25026  0.90524  0.37426  1.0000
  H   H152      1.0  0.27500  0.89228  0.38756  1.0000
  C   C251      1.0  0.26872  0.93079  0.39962  1.0000
  C   C252      1.0  0.25653  0.94297  0.45220  1.0000
  H   H153      1.0  0.27709  0.94122  0.33846  1.0000
  H   H154      1.0  0.28328  0.93136  0.44112  1.0000
  H   H155      1.0  0.27021  0.96209  0.46494  1.0000
  H   H156      1.0  0.25016  0.93385  0.51706  1.0000
  C   C253      1.0  0.25338  0.04563  0.31580  1.0000
  C   C254      1.0  0.25934  0.06793  0.35838  1.0000
  C   C255      1.0  0.28362  0.08787  0.35826  1.0000
  C   C256      1.0  0.30294  0.08660  0.31426  1.0000
  C   C257      1.0  0.32853  0.10563  0.31911  1.0000
  C   C258      1.0  0.33652  0.13042  0.34065  1.0000
  C   C259      1.0  0.36160  0.14842  0.34196  1.0000
  C   C260      1.0  0.38005  0.14253  0.32307  1.0000
  H   H157      1.0  0.32412  0.13597  0.35321  1.0000
  H   H158      1.0  0.36626  0.16605  0.35712  1.0000
  H   H159      1.0  0.24632  0.06935  0.39459  1.0000
  H   H160      1.0  0.28714  0.10294  0.39501  1.0000
  C   C261      1.0  0.79717  0.75277  0.31580  1.0000
  C   C262      1.0  0.81351  0.74681  0.35836  1.0000
  C   C263      1.0  0.80917  0.72253  0.35825  1.0000
  C   C264      1.0  0.78857  0.70321  0.31426  1.0000
  C   C265      1.0  0.78202  0.67762  0.31913  1.0000
  C   C266      1.0  0.79882  0.66963  0.34063  1.0000
  C   C267      1.0  0.79173  0.64455  0.34194  1.0000
  C   C268      1.0  0.76739  0.62609  0.32309  1.0000
  H   H161      1.0  0.81676  0.68203  0.35317  1.0000
  H   H162      1.0  0.80470  0.63989  0.35707  1.0000
  H   H163      1.0  0.82795  0.75983  0.39455  1.0000
  H   H164      1.0  0.82071  0.71901  0.39498  1.0000
  C   C269      1.0  0.96052  0.20898  0.31586  1.0000
  C   C270      1.0  0.93821  0.19263  0.35836  1.0000
  C   C271      1.0  0.91827  0.19697  0.35823  1.0000
  C   C272      1.0  0.91955  0.21757  0.31426  1.0000
  C   C273      1.0  0.90051  0.22412  0.31911  1.0000
  C   C274      1.0  0.87572  0.20732  0.34061  1.0000
  C   C275      1.0  0.85772  0.21440  0.34192  1.0000
  C   C276      1.0  0.86361  0.23875  0.32309  1.0000
  H   H165      1.0  0.87017  0.18937  0.35315  1.0000
  H   H166      1.0  0.84009  0.20143  0.35705  1.0000
  H   H167      1.0  0.93679  0.17819  0.39454  1.0000
  H   H168      1.0  0.90320  0.18542  0.39494  1.0000
  C   C277      1.0  0.22884  0.44735  0.35920  1.0000
  C   C278      1.0  0.24386  0.46870  0.40953  1.0000
  C   C279      1.0  0.26948  0.48042  0.40451  1.0000
  C   C280      1.0  0.28131  0.47164  0.34734  1.0000
  C   C281      1.0  0.30764  0.48355  0.34016  1.0000
  C   C282      1.0  0.32352  0.50839  0.36400  1.0000
  C   C283      1.0  0.34913  0.51918  0.35850  1.0000
  C   C284      1.0  0.36006  0.50556  0.32941  1.0000
  H   H169      1.0  0.31674  0.51923  0.38517  1.0000
  H   H170      1.0  0.35974  0.53700  0.37854  1.0000
  H   H171      1.0  0.23625  0.47609  0.45070  1.0000
  H   H172      1.0  0.27924  0.49545  0.44403  1.0000
  C   C285      1.0  0.55879  0.78271  0.35915  1.0000
  C   C286      1.0  0.53744  0.77638  0.40952  1.0000
  C   C287      1.0  0.52573  0.79029  0.40451  1.0000
  C   C288      1.0  0.53451  0.81089  0.34734  1.0000
  C   C289      1.0  0.52260  0.82532  0.34016  1.0000
  C   C290      1.0  0.49776  0.81636  0.36400  1.0000
  C   C291      1.0  0.48696  0.83117  0.35848  1.0000
  C   C292      1.0  0.50058  0.85572  0.32937  1.0000
  H   H173      1.0  0.48692  0.79874  0.38518  1.0000
  H   H174      1.0  0.46915  0.82397  0.37852  1.0000
  H   H175      1.0  0.53005  0.76138  0.45070  1.0000
  H   H176      1.0  0.51070  0.78502  0.44404  1.0000
  C   C293      1.0  0.22343  0.77730  0.35918  1.0000
  C   C294      1.0  0.22976  0.76228  0.40954  1.0000
  C   C295      1.0  0.21585  0.73666  0.40452  1.0000
  C   C296      1.0  0.19525  0.72483  0.34734  1.0000
  C   C297      1.0  0.18082  0.69850  0.34016  1.0000
  C   C298      1.0  0.18978  0.68262  0.36401  1.0000
  C   C299      1.0  0.17496  0.65701  0.35849  1.0000
  C   C300      1.0  0.15041  0.64608  0.32940  1.0000
  H   H177      1.0  0.20739  0.68940  0.38518  1.0000
  H   H178      1.0  0.18217  0.64640  0.37854  1.0000
  H   H179      1.0  0.24476  0.76989  0.45071  1.0000
  H   H180      1.0  0.22112  0.72690  0.44404  1.0000
  C   C301      1.0  0.45029  0.26565  0.36496  1.0000
  C   C302      1.0  0.43843  0.23974  0.36130  1.0000
  H   H181      1.0  0.42347  0.22951  0.40097  1.0000
  C   C303      1.0  0.48200  0.34360  0.35776  1.0000
  C   C304      1.0  0.47098  0.31783  0.35503  1.0000
  H   H182      1.0  0.47191  0.35097  0.38200  1.0000
  C   C305      1.0  0.44518  0.30226  0.38554  1.0000
  C   C306      1.0  0.44078  0.27772  0.42551  1.0000
  H   H183      1.0  0.43309  0.29857  0.32797  1.0000
  H   H184      1.0  0.44038  0.31164  0.43637  1.0000
  H   H185      1.0  0.42119  0.26598  0.43797  1.0000
  H   H186      1.0  0.45031  0.28121  0.48980  1.0000
  C   C307      1.0  0.82027  0.55585  0.36494  1.0000
  C   C308      1.0  0.80622  0.56771  0.36127  1.0000
  H   H187      1.0  0.81096  0.58268  0.40093  1.0000
  C   C309      1.0  0.86651  0.52414  0.35774  1.0000
  C   C310      1.0  0.85175  0.53515  0.35502  1.0000
  H   H188      1.0  0.88397  0.53423  0.38198  1.0000
  C   C311      1.0  0.86199  0.56095  0.38554  1.0000
  C   C312      1.0  0.84184  0.56535  0.42551  1.0000
  H   H189      1.0  0.87040  0.57305  0.32799  1.0000
  H   H190      1.0  0.87616  0.56575  0.43639  1.0000
  H   H191      1.0  0.84970  0.58495  0.43798  1.0000
  H   H192      1.0  0.83580  0.55583  0.48979  1.0000
  C   C313      1.0  0.74049  0.18586  0.36496  1.0000
  C   C314      1.0  0.76640  0.19991  0.36129  1.0000
  H   H193      1.0  0.77663  0.19518  0.40095  1.0000
  C   C315      1.0  0.66254  0.13962  0.35774  1.0000
  C   C316      1.0  0.68831  0.15438  0.35502  1.0000
  H   H194      1.0  0.65517  0.12215  0.38198  1.0000
  C   C317      1.0  0.70388  0.14414  0.38553  1.0000
  C   C318      1.0  0.72842  0.16428  0.42551  1.0000
  H   H195      1.0  0.70756  0.13573  0.32796  1.0000
  H   H196      1.0  0.69450  0.12997  0.43636  1.0000
  H   H197      1.0  0.74016  0.15643  0.43796  1.0000
  H   H198      1.0  0.72493  0.17032  0.48979  1.0000
  C   C319      1.0  0.15930  0.54420  0.39434  1.0000
  C   C320      1.0  0.15420  0.56363  0.38759  1.0000
  H   H199      1.0  0.16368  0.57890  0.42663  1.0000
  C   C321      1.0  0.17976  0.48880  0.39212  1.0000
  C   C322      1.0  0.17342  0.50736  0.38979  1.0000
  H   H200      1.0  0.19667  0.49313  0.41603  1.0000
  C   C323      1.0  0.19140  0.53253  0.42077  1.0000
  C   C324      1.0  0.17850  0.54619  0.45726  1.0000
  H   H201      1.0  0.20311  0.54271  0.36417  1.0000
  H   H202      1.0  0.20311  0.53202  0.47378  1.0000
  H   H203      1.0  0.19233  0.56529  0.46945  1.0000
  H   H204      1.0  0.16975  0.53808  0.52131  1.0000
  C   C325      1.0  0.46194  0.61633  0.39439  1.0000
  C   C326      1.0  0.44251  0.59180  0.38765  1.0000
  H   H205      1.0  0.42724  0.58601  0.42671  1.0000
  C   C327      1.0  0.51735  0.69218  0.39218  1.0000
  C   C328      1.0  0.49879  0.66729  0.38984  1.0000
  H   H206      1.0  0.51303  0.70477  0.41610  1.0000
  C   C329      1.0  0.47362  0.66010  0.42085  1.0000
  C   C330      1.0  0.45996  0.63354  0.45734  1.0000
  H   H207      1.0  0.46344  0.66164  0.36427  1.0000
  H   H208      1.0  0.47414  0.67232  0.47387  1.0000
  H   H209      1.0  0.44086  0.62827  0.46956  1.0000
  H   H210      1.0  0.46808  0.63289  0.52137  1.0000
  C   C331      1.0  0.38981  0.84684  0.39438  1.0000
  C   C332      1.0  0.41434  0.85193  0.38761  1.0000
  H   H211      1.0  0.42013  0.84246  0.42666  1.0000
  C   C333      1.0  0.31396  0.82639  0.39220  1.0000
  C   C334      1.0  0.33885  0.83273  0.38987  1.0000
  H   H212      1.0  0.30137  0.80948  0.41613  1.0000
  C   C335      1.0  0.34604  0.81474  0.42087  1.0000
  C   C336      1.0  0.37260  0.82765  0.45734  1.0000
  H   H213      1.0  0.34450  0.80303  0.36429  1.0000
  H   H214      1.0  0.33383  0.80305  0.47390  1.0000
  H   H215      1.0  0.37788  0.81382  0.46956  1.0000
  H   H216      1.0  0.37326  0.83641  0.52138  1.0000
  C   C337      1.0  0.56297  0.13508  0.34739  1.0000
  C   C338      1.0  0.54159  0.12226  0.40010  1.0000
  C   C339      1.0  0.52239  0.12736  0.39431  1.0000
  C   C340      1.0  0.52346  0.14524  0.33424  1.0000
  C   C341      1.0  0.50371  0.15044  0.32571  1.0000
  C   C342      1.0  0.47921  0.13365  0.35107  1.0000
  C   C343      1.0  0.46057  0.13964  0.34460  1.0000
  C   C344      1.0  0.46562  0.16280  0.31296  1.0000
  H   H217      1.0  0.47440  0.11659  0.37426  1.0000
  H   H218      1.0  0.44336  0.12709  0.36599  1.0000
  H   H219      1.0  0.53961  0.10873  0.44311  1.0000
  H   H220      1.0  0.50764  0.11770  0.43519  1.0000
  C   C345      1.0  0.57703  0.44317  0.34739  1.0000
  C   C346      1.0  0.58559  0.46455  0.40010  1.0000
  C   C347      1.0  0.60989  0.48375  0.39432  1.0000
  C   C348      1.0  0.62670  0.48268  0.33425  1.0000
  C   C349      1.0  0.65165  0.50244  0.32573  1.0000
  C   C350      1.0  0.65935  0.52693  0.35108  1.0000
  C   C351      1.0  0.68399  0.54557  0.34460  1.0000
  C   C352      1.0  0.70210  0.54053  0.31294  1.0000
  H   H221      1.0  0.64711  0.53174  0.37429  1.0000
  H   H222      1.0  0.68864  0.56278  0.36599  1.0000
  H   H223      1.0  0.57404  0.46653  0.44311  1.0000
  H   H224      1.0  0.61498  0.49850  0.43519  1.0000
  C   C353      1.0  0.87104  0.42910  0.34737  1.0000
  C   C354      1.0  0.88386  0.42055  0.40010  1.0000
  C   C355      1.0  0.87875  0.39624  0.39433  1.0000
  C   C356      1.0  0.86088  0.37944  0.33424  1.0000
  C   C357      1.0  0.85568  0.35448  0.32572  1.0000
  C   C358      1.0  0.87248  0.34679  0.35110  1.0000
  C   C359      1.0  0.86648  0.32215  0.34460  1.0000
  C   C360      1.0  0.84333  0.30403  0.31292  1.0000
  H   H225      1.0  0.88953  0.35902  0.37432  1.0000
  H   H226      1.0  0.87904  0.31750  0.36602  1.0000
  H   H227      1.0  0.89738  0.43210  0.44311  1.0000
  H   H228      1.0  0.88841  0.39115  0.43521  1.0000
  C   C361      1.0  0.06900  0.57682  0.34362  1.0000
  C   C362      1.0  0.05728  0.56341  0.42132  1.0000
  C   C363      1.0  0.03175  0.55167  0.42900  1.0000
  C   C364      1.0  0.01709  0.55222  0.35806  1.0000
  C   C365      1.0  0.99080  0.53869  0.36131  1.0000
  C   C366      1.0  0.97784  0.51761  0.41570  1.0000
  C   C367      1.0  0.95225  0.50353  0.41288  1.0000
  C   C368      1.0  0.93860  0.51014  0.35625  1.0000
  H   H229      1.0  0.98676  0.51134  0.45515  1.0000
  H   H230      1.0  0.94371  0.48821  0.45230  1.0000
  H   H231      1.0  0.06722  0.56196  0.47285  1.0000
  H   H232      1.0  0.02416  0.54256  0.48732  1.0000
  C   C369      1.0  0.42931  0.49340  0.34375  1.0000
  C   C370      1.0  0.44270  0.49507  0.42150  1.0000
  C   C371      1.0  0.45444  0.48128  0.42915  1.0000
  C   C372      1.0  0.45392  0.46610  0.35814  1.0000
  C   C373      1.0  0.46744  0.45333  0.36137  1.0000
  C   C374      1.0  0.48850  0.46144  0.41584  1.0000
  C   C375      1.0  0.50259  0.44993  0.41301  1.0000
  C   C376      1.0  0.49599  0.42968  0.35632  1.0000
  H   H233      1.0  0.49477  0.47662  0.45536  1.0000
  H   H234      1.0  0.51789  0.45669  0.45250  1.0000
  H   H235      1.0  0.44413  0.50643  0.47308  1.0000
  H   H236      1.0  0.46353  0.48277  0.48750  1.0000
  C   C377      1.0  0.51273  0.93713  0.34362  1.0000
  C   C378      1.0  0.51106  0.94884  0.42137  1.0000
  C   C379      1.0  0.52485  0.97437  0.42906  1.0000
  C   C380      1.0  0.54003  0.98903  0.35808  1.0000
  C   C381      1.0  0.55280  0.01533  0.36134  1.0000
  C   C382      1.0  0.54470  0.02829  0.41581  1.0000
  C   C383      1.0  0.55620  0.05387  0.41300  1.0000
  C   C384      1.0  0.57645  0.06752  0.35632  1.0000
  H   H237      1.0  0.52952  0.01937  0.45531  1.0000
  H   H238      1.0  0.54944  0.06241  0.45249  1.0000
  H   H239      1.0  0.49969  0.93890  0.47293  1.0000
  H   H240      1.0  0.52335  0.98197  0.48742  1.0000
