data_image0
_chemical_formula_structural       NCHNCHNCHNCHC2NC2O2HC2NC2O2HNCHNCHC2NC2O2HC2NC2O2HNCHNCHNCHNCHC2NC2O2HC2NC2O2HC2NC2O2HC2NC2O2HC6H3C6H3C6H3C6H3C6H3C6H3C6H3C6H3C6H3C6H3C6H3C6H3C2NC2O2HC2NC2O2HC2NC2O2HC2NC2O2HNCHNCHC2NC2O2HC2NC2O2HNCHNCHC2NC2O2HC2NC2O2HC2NC2O2HC2NC2O2HNCHNCHNCHNCHNCHNCHNCHNCHC2NC2O2HC2NC2O2HNCHNCHC2NC2O2HC2NC2O2HNCHNCHNCHNCHC2NC2O2HC2NC2O2HC2NC2O2HC2NC2O2HC6H3C6H3C6H3C6H3C6H3C6H3C6H3C6H3C6H3C6H3C6H3C6H3C2NC2O2HC2NC2O2HC2NC2O2HC2NC2O2HNCHNCHC2NC2O2HC2NC2O2HNCHNCHC2NC2O2HC2NC2O2HC2NC2O2HC2NC2O2HNCHNCHNCHNCH
_chemical_formula_sum              "N72 C324 H144 O72"
_cell_length_a       42.6358
_cell_length_b       55.2757
_cell_length_c       14.8834
_cell_angle_alpha    90
_cell_angle_beta     90
_cell_angle_gamma    90

_space_group_name_H-M_alt    "P 1"
_space_group_IT_number       1

loop_
  _space_group_symop_operation_xyz
  'x, y, z'

loop_
  _atom_site_type_symbol
  _atom_site_label
  _atom_site_symmetry_multiplicity
  _atom_site_fract_x
  _atom_site_fract_y
  _atom_site_fract_z
  _atom_site_occupancy
  N   N1        1.0  0.27012  0.15357  0.34826  1.0000
  C   C1        1.0  0.23833  0.15125  0.34061  1.0000
  H   H1        1.0  0.22960  0.13755  0.30200  1.0000
  N   N2        1.0  0.23739  0.85472  0.33620  1.0000
  C   C2        1.0  0.26929  0.85658  0.32953  1.0000
  H   H2        1.0  0.27863  0.87093  0.29567  1.0000
  N   N3        1.0  0.01998  0.65273  0.34587  1.0000
  C   C3        1.0  0.48812  0.65047  0.34034  1.0000
  H   H3        1.0  0.47899  0.63671  0.30283  1.0000
  N   N4        1.0  0.48807  0.35478  0.34249  1.0000
  C   C4        1.0  0.01997  0.35676  0.33719  1.0000
  H   H4        1.0  0.02928  0.37063  0.30065  1.0000
  C   C5        1.0  0.05882  0.10916  0.28674  1.0000
  C   C6        1.0  0.11102  0.14122  0.29373  1.0000
  N   N5        1.0  0.08359  0.14681  0.25249  1.0000
  C   C7        1.0  0.05812  0.13232  0.24426  1.0000
  C   C8        1.0  0.03446  0.14078  0.18801  1.0000
  O   O1        1.0  0.02734  0.16220  0.18997  1.0000
  O   O2        1.0  0.02466  0.12918  0.12280  1.0000
  H   H5        1.0  0.02985  0.11405  0.11007  1.0000
  C   C9        1.0  0.44967  0.89781  0.29004  1.0000
  C   C10       1.0  0.39755  0.86562  0.29466  1.0000
  N   N6        1.0  0.42562  0.85981  0.25759  1.0000
  C   C11       1.0  0.45117  0.87426  0.25077  1.0000
  C   C12       1.0  0.47547  0.86551  0.19825  1.0000
  O   O3        1.0  0.48183  0.84387  0.19966  1.0000
  O   O4        1.0  0.48459  0.87819  0.13499  1.0000
  H   H6        1.0  0.49893  0.87362  0.09539  1.0000
  N   N7        1.0  0.41827  0.10309  0.34044  1.0000
  C   C13       1.0  0.39237  0.11773  0.34401  1.0000
  H   H7        1.0  0.37164  0.11137  0.31918  1.0000
  N   N8        1.0  0.08932  0.90653  0.34237  1.0000
  C   C14       1.0  0.11522  0.89188  0.34537  1.0000
  H   H8        1.0  0.13542  0.89772  0.31563  1.0000
  C   C15       1.0  0.30871  0.60903  0.28700  1.0000
  C   C16       1.0  0.36064  0.64123  0.29693  1.0000
  N   N9        1.0  0.33325  0.64697  0.25577  1.0000
  C   C17       1.0  0.30792  0.63239  0.24602  1.0000
  C   C18       1.0  0.28423  0.64097  0.19012  1.0000
  O   O5        1.0  0.27738  0.66245  0.19182  1.0000
  O   O6        1.0  0.27490  0.62969  0.12357  1.0000
  H   H9        1.0  0.28003  0.61457  0.11040  1.0000
  C   C19       1.0  0.19975  0.39748  0.28697  1.0000
  C   C20       1.0  0.14754  0.36545  0.29459  1.0000
  N   N10       1.0  0.17532  0.35950  0.25601  1.0000
  C   C21       1.0  0.20088  0.37391  0.24764  1.0000
  C   C22       1.0  0.22487  0.36517  0.19383  1.0000
  O   O7        1.0  0.23065  0.34343  0.19382  1.0000
  O   O8        1.0  0.23261  0.37769  0.12871  1.0000
  H   H10       1.0  0.24638  0.37314  0.08747  1.0000
  N   N11       1.0  0.16836  0.60216  0.34108  1.0000
  C   C23       1.0  0.14237  0.61669  0.34499  1.0000
  H   H11       1.0  0.12177  0.61039  0.31904  1.0000
  N   N12       1.0  0.33964  0.40605  0.34024  1.0000
  C   C24       1.0  0.36561  0.39148  0.34349  1.0000
  H   H12       1.0  0.38599  0.39762  0.31568  1.0000
  N   N13       1.0  0.13132  0.26742  0.25241  1.0000
  C   C25       1.0  0.13759  0.24338  0.24465  1.0000
  H   H13       1.0  0.14429  0.23649  0.18389  1.0000
  N   N14       1.0  0.37241  0.73830  0.25649  1.0000
  C   C26       1.0  0.36565  0.76218  0.24598  1.0000
  H   H14       1.0  0.35587  0.76807  0.18723  1.0000
  C   C27       1.0  0.38582  0.27923  0.35304  1.0000
  C   C28       1.0  0.37098  0.22993  0.37094  1.0000
  N   N15       1.0  0.38943  0.23813  0.30312  1.0000
  C   C29       1.0  0.39762  0.26177  0.29099  1.0000
  C   C30       1.0  0.41543  0.26767  0.21632  1.0000
  O   O9        1.0  0.43449  0.25288  0.18811  1.0000
  O   O10       1.0  0.40481  0.28307  0.16432  1.0000
  H   H15       1.0  0.41354  0.28703  0.11234  1.0000
  C   C31       1.0  0.12122  0.72920  0.36123  1.0000
  C   C32       1.0  0.13436  0.77933  0.35849  1.0000
  N   N16       1.0  0.15038  0.76299  0.30745  1.0000
  C   C33       1.0  0.14519  0.73869  0.30512  1.0000
  C   C34       1.0  0.16225  0.72498  0.24420  1.0000
  O   O11       1.0  0.19032  0.72905  0.23719  1.0000
  O   O12       1.0  0.14974  0.71625  0.17660  1.0000
  H   H16       1.0  0.12928  0.71420  0.16921  1.0000
  C   C35       1.0  0.00233  0.97875  0.32358  1.0000
  C   C36       1.0  0.00333  0.03031  0.33174  1.0000
  N   N17       1.0  0.98323  0.01790  0.27787  1.0000
  C   C37       1.0  0.98163  0.99328  0.27067  1.0000
  C   C38       1.0  0.96178  0.98428  0.20482  1.0000
  O   O13       1.0  0.93558  0.99304  0.19753  1.0000
  O   O14       1.0  0.97203  0.97468  0.13573  1.0000
  H   H17       1.0  0.99143  0.96926  0.12863  1.0000
  C   C39       1.0  0.25272  0.47824  0.32167  1.0000
  C   C40       1.0  0.25380  0.52980  0.33031  1.0000
  N   N18       1.0  0.23353  0.51744  0.27684  1.0000
  C   C41       1.0  0.23186  0.49283  0.26947  1.0000
  C   C42       1.0  0.21184  0.48395  0.20379  1.0000
  O   O15       1.0  0.18548  0.49253  0.19841  1.0000
  O   O16       1.0  0.22197  0.47456  0.13419  1.0000
  H   H18       1.0  0.24140  0.46927  0.12642  1.0000
  C   C43       1.0  0.14452  0.20387  0.32184  1.0000
  C   C44       1.0  0.17504  0.19824  0.35047  1.0000
  C   C45       1.0  0.18672  0.17417  0.35104  1.0000
  C   C46       1.0  0.16548  0.15536  0.32846  1.0000
  C   C47       1.0  0.13365  0.15997  0.30541  1.0000
  C   C48       1.0  0.12429  0.18469  0.29868  1.0000
  H   H19       1.0  0.17329  0.13791  0.33098  1.0000
  H   H20       1.0  0.10163  0.18906  0.28269  1.0000
  H   H21       1.0  0.18964  0.21244  0.36512  1.0000
  C   C49       1.0  0.36310  0.80302  0.31534  1.0000
  C   C50       1.0  0.33195  0.80870  0.33727  1.0000
  C   C51       1.0  0.32056  0.83285  0.33903  1.0000
  C   C52       1.0  0.34242  0.85164  0.32153  1.0000
  C   C53       1.0  0.37466  0.84695  0.30377  1.0000
  C   C54       1.0  0.38408  0.82220  0.29893  1.0000
  H   H22       1.0  0.33472  0.86911  0.32392  1.0000
  H   H23       1.0  0.40705  0.81778  0.28747  1.0000
  H   H24       1.0  0.31697  0.79448  0.34808  1.0000
  C   C55       1.0  0.36151  0.20522  0.37333  1.0000
  C   C56       1.0  0.32943  0.19970  0.37671  1.0000
  C   C57       1.0  0.31774  0.17575  0.38062  1.0000
  C   C58       1.0  0.33978  0.15668  0.36929  1.0000
  C   C59       1.0  0.37273  0.16106  0.36953  1.0000
  C   C60       1.0  0.38275  0.18571  0.37132  1.0000
  H   H25       1.0  0.33183  0.13924  0.37183  1.0000
  H   H26       1.0  0.40614  0.18985  0.36868  1.0000
  H   H27       1.0  0.31410  0.21385  0.37060  1.0000
  C   C61       1.0  0.14425  0.80409  0.36059  1.0000
  C   C62       1.0  0.17644  0.80927  0.35496  1.0000
  C   C63       1.0  0.18898  0.83285  0.36455  1.0000
  C   C64       1.0  0.16737  0.85241  0.36200  1.0000
  C   C65       1.0  0.13445  0.84848  0.36944  1.0000
  C   C66       1.0  0.12385  0.82397  0.37214  1.0000
  H   H28       1.0  0.17592  0.86965  0.36635  1.0000
  H   H29       1.0  0.10034  0.82032  0.37469  1.0000
  H   H30       1.0  0.19139  0.79511  0.34400  1.0000
  C   C67       1.0  0.39409  0.70374  0.33221  1.0000
  C   C68       1.0  0.42507  0.69768  0.35562  1.0000
  C   C69       1.0  0.43667  0.67362  0.35385  1.0000
  C   C70       1.0  0.41514  0.65503  0.33145  1.0000
  C   C71       1.0  0.38323  0.65992  0.31021  1.0000
  C   C72       1.0  0.37388  0.68470  0.30674  1.0000
  H   H31       1.0  0.42291  0.63756  0.33165  1.0000
  H   H32       1.0  0.35110  0.68913  0.29253  1.0000
  H   H33       1.0  0.44018  0.71171  0.36771  1.0000
  C   C73       1.0  0.11365  0.30313  0.32889  1.0000
  C   C74       1.0  0.08280  0.30920  0.35344  1.0000
  C   C75       1.0  0.07120  0.33327  0.35064  1.0000
  C   C76       1.0  0.09281  0.35179  0.32782  1.0000
  C   C77       1.0  0.12474  0.34686  0.30698  1.0000
  C   C78       1.0  0.13398  0.32206  0.30335  1.0000
  H   H34       1.0  0.08511  0.36928  0.32785  1.0000
  H   H35       1.0  0.15672  0.31751  0.28923  1.0000
  H   H36       1.0  0.06789  0.29517  0.36741  1.0000
  C   C79       1.0  0.11176  0.70433  0.36559  1.0000
  C   C80       1.0  0.07964  0.69880  0.36774  1.0000
  C   C81       1.0  0.06789  0.67491  0.37505  1.0000
  C   C82       1.0  0.08984  0.65570  0.36681  1.0000
  C   C83       1.0  0.12275  0.66004  0.36906  1.0000
  C   C84       1.0  0.13281  0.68467  0.37044  1.0000
  H   H37       1.0  0.08179  0.63831  0.37056  1.0000
  H   H38       1.0  0.15623  0.68865  0.37164  1.0000
  H   H39       1.0  0.06423  0.71282  0.35941  1.0000
  C   C85       1.0  0.39566  0.30393  0.35707  1.0000
  C   C86       1.0  0.42784  0.30916  0.36023  1.0000
  C   C87       1.0  0.43982  0.33291  0.36999  1.0000
  C   C88       1.0  0.41802  0.35229  0.36358  1.0000
  C   C89       1.0  0.38506  0.34810  0.36652  1.0000
  C   C90       1.0  0.37472  0.32352  0.36615  1.0000
  H   H40       1.0  0.42622  0.36961  0.36889  1.0000
  H   H41       1.0  0.35125  0.31961  0.36549  1.0000
  H   H42       1.0  0.44306  0.29496  0.35399  1.0000
  C   C91       1.0  0.03163  0.09491  0.30559  1.0000
  C   C92       1.0  0.50290  0.10678  0.32300  1.0000
  C   C93       1.0  0.47449  0.09517  0.34652  1.0000
  C   C94       1.0  0.47479  0.06952  0.34194  1.0000
  C   C95       1.0  0.00327  0.05628  0.33121  1.0000
  C   C96       1.0  0.03160  0.06945  0.31752  1.0000
  H   H43       1.0  0.45447  0.06030  0.35496  1.0000
  H   H44       1.0  0.05203  0.06016  0.30691  1.0000
  H   H45       1.0  0.50272  0.12512  0.31944  1.0000
  C   C97       1.0  0.47636  0.91271  0.30789  1.0000
  C   C98       1.0  0.00536  0.90167  0.32803  1.0000
  C   C99       1.0  0.03316  0.91418  0.35106  1.0000
  C   C100      1.0  0.03198  0.93975  0.34231  1.0000
  C   C101      1.0  0.50331  0.95247  0.32612  1.0000
  C   C102      1.0  0.47559  0.93825  0.31563  1.0000
  H   H46       1.0  0.05211  0.94935  0.35365  1.0000
  H   H47       1.0  0.45439  0.94661  0.30856  1.0000
  H   H48       1.0  0.00614  0.88331  0.32778  1.0000
  C   C103      1.0  0.28164  0.59458  0.30522  1.0000
  C   C104      1.0  0.25283  0.60627  0.32305  1.0000
  C   C105      1.0  0.22458  0.59447  0.34678  1.0000
  C   C106      1.0  0.22504  0.56884  0.34140  1.0000
  C   C107      1.0  0.25361  0.55576  0.33020  1.0000
  C   C108      1.0  0.28181  0.56909  0.31652  1.0000
  H   H49       1.0  0.20483  0.55951  0.35480  1.0000
  H   H50       1.0  0.30232  0.55991  0.30567  1.0000
  H   H51       1.0  0.25248  0.62462  0.32002  1.0000
  C   C109      1.0  0.22660  0.41229  0.30393  1.0000
  C   C110      1.0  0.25563  0.40115  0.32291  1.0000
  C   C111      1.0  0.28341  0.41354  0.34689  1.0000
  C   C112      1.0  0.28229  0.43915  0.33949  1.0000
  C   C113      1.0  0.25366  0.45196  0.32367  1.0000
  C   C114      1.0  0.22590  0.43780  0.31300  1.0000
  H   H52       1.0  0.30244  0.44868  0.35128  1.0000
  H   H53       1.0  0.20469  0.44619  0.30686  1.0000
  H   H54       1.0  0.25641  0.38280  0.32148  1.0000
  C   C115      1.0  0.28482  0.17232  0.39081  1.0000
  C   C116      1.0  0.21897  0.17043  0.37054  1.0000
  N   N19       1.0  0.23377  0.18763  0.41963  1.0000
  C   C117      1.0  0.26487  0.18926  0.43511  1.0000
  C   C118      1.0  0.27416  0.20662  0.49745  1.0000
  O   O17       1.0  0.26103  0.22629  0.49879  1.0000
  O   O18       1.0  0.28981  0.20166  0.56489  1.0000
  H   H55       1.0  0.29868  0.18747  0.57560  1.0000
  C   C119      1.0  0.22207  0.83544  0.37339  1.0000
  C   C120      1.0  0.28811  0.83668  0.35568  1.0000
  N   N20       1.0  0.27260  0.81893  0.39997  1.0000
  C   C121      1.0  0.24143  0.81740  0.41361  1.0000
  C   C122      1.0  0.23168  0.79919  0.47199  1.0000
  O   O19       1.0  0.24390  0.77921  0.46739  1.0000
  O   O20       1.0  0.21684  0.80342  0.54159  1.0000
  H   H56       1.0  0.20873  0.81763  0.55620  1.0000
  C   C123      1.0  0.03505  0.67160  0.38657  1.0000
  C   C124      1.0  0.46908  0.66978  0.37082  1.0000
  N   N21       1.0  0.48437  0.68706  0.41828  1.0000
  C   C125      1.0  0.01558  0.68876  0.43134  1.0000
  C   C126      1.0  0.02550  0.70637  0.49195  1.0000
  O   O21       1.0  0.01210  0.72593  0.49398  1.0000
  O   O22       1.0  0.04126  0.70149  0.55928  1.0000
  H   H57       1.0  0.05025  0.68734  0.57000  1.0000
  C   C127      1.0  0.47269  0.33592  0.38224  1.0000
  C   C128      1.0  0.03877  0.33725  0.36724  1.0000
  N   N22       1.0  0.02315  0.31992  0.41355  1.0000
  C   C129      1.0  0.49190  0.31843  0.42618  1.0000
  C   C130      1.0  0.48171  0.30063  0.48565  1.0000
  O   O23       1.0  0.49468  0.28089  0.48606  1.0000
  O   O24       1.0  0.46576  0.30525  0.55285  1.0000
  H   H58       1.0  0.45699  0.31943  0.56451  1.0000
  N   N23       1.0  0.08706  0.10256  0.32244  1.0000
  C   C131      1.0  0.11309  0.11696  0.32416  1.0000
  H   H59       1.0  0.13246  0.11075  0.35711  1.0000
  N   N24       1.0  0.42087  0.90459  0.32136  1.0000
  C   C132      1.0  0.39490  0.89012  0.32181  1.0000
  H   H60       1.0  0.37503  0.89655  0.35156  1.0000
  C   C133      1.0  0.44774  0.10985  0.36680  1.0000
  C   C134      1.0  0.39569  0.14227  0.37007  1.0000
  N   N25       1.0  0.42443  0.14791  0.40292  1.0000
  C   C135      1.0  0.44995  0.13340  0.40586  1.0000
  C   C136      1.0  0.47507  0.14200  0.45645  1.0000
  O   O25       1.0  0.48212  0.16341  0.45116  1.0000
  O   O26       1.0  0.48490  0.13137  0.52385  1.0000
  H   H61       1.0  0.47970  0.11646  0.53965  1.0000
  C   C137      1.0  0.06028  0.90017  0.37352  1.0000
  C   C138      1.0  0.11202  0.86759  0.37464  1.0000
  N   N26       1.0  0.08384  0.86241  0.41220  1.0000
  C   C139      1.0  0.05857  0.87715  0.41684  1.0000
  C   C140      1.0  0.03387  0.86903  0.47018  1.0000
  O   O27       1.0  0.02660  0.84763  0.46845  1.0000
  O   O28       1.0  0.02319  0.88089  0.53361  1.0000
  H   H62       1.0  0.02834  0.89602  0.54636  1.0000
  N   N27       1.0  0.33693  0.60235  0.32253  1.0000
  C   C141      1.0  0.36289  0.61680  0.32530  1.0000
  H   H63       1.0  0.38216  0.61049  0.35844  1.0000
  N   N28       1.0  0.17121  0.40437  0.31974  1.0000
  C   C142      1.0  0.14522  0.38997  0.32179  1.0000
  H   H64       1.0  0.12558  0.39650  0.35250  1.0000
  C   C143      1.0  0.19776  0.60898  0.36780  1.0000
  C   C144      1.0  0.14563  0.64122  0.37130  1.0000
  N   N29       1.0  0.17430  0.64690  0.40452  1.0000
  C   C145      1.0  0.19986  0.63245  0.40746  1.0000
  C   C146      1.0  0.22494  0.64115  0.45792  1.0000
  O   O29       1.0  0.23202  0.66255  0.45284  1.0000
  O   O30       1.0  0.23533  0.63033  0.52423  1.0000
  H   H65       1.0  0.23027  0.61536  0.53979  1.0000
  C   C147      1.0  0.31045  0.39942  0.36932  1.0000
  C   C148      1.0  0.36238  0.36703  0.37079  1.0000
  N   N30       1.0  0.33401  0.36153  0.40649  1.0000
  C   C149      1.0  0.30863  0.37617  0.41094  1.0000
  C   C150      1.0  0.28373  0.36777  0.46288  1.0000
  O   O31       1.0  0.27681  0.34630  0.46061  1.0000
  O   O32       1.0  0.27312  0.37919  0.52750  1.0000
  H   H66       1.0  0.27807  0.39431  0.54119  1.0000
  C   C151      1.0  0.12308  0.27834  0.33102  1.0000
  C   C152      1.0  0.13491  0.22845  0.32109  1.0000
  N   N31       1.0  0.12744  0.23940  0.39994  1.0000
  C   C153      1.0  0.12087  0.26341  0.40874  1.0000
  C   C154      1.0  0.11371  0.27222  0.49376  1.0000
  O   O33       1.0  0.09694  0.25998  0.54244  1.0000
  O   O34       1.0  0.13101  0.28673  0.53308  1.0000
  H   H67       1.0  0.14621  0.29521  0.50749  1.0000
  C   C155      1.0  0.38478  0.72865  0.33293  1.0000
  C   C156      1.0  0.37261  0.77842  0.31632  1.0000
  N   N32       1.0  0.38398  0.76878  0.39360  1.0000
  C   C157      1.0  0.39072  0.74489  0.40540  1.0000
  C   C158      1.0  0.40126  0.73754  0.48942  1.0000
  O   O35       1.0  0.41963  0.75054  0.52998  1.0000
  O   O36       1.0  0.38576  0.72378  0.53764  1.0000
  H   H68       1.0  0.36973  0.71486  0.51928  1.0000
  N   N33       1.0  0.36707  0.27100  0.42036  1.0000
  C   C159      1.0  0.35887  0.24746  0.43072  1.0000
  H   H69       1.0  0.34449  0.24272  0.48278  1.0000
  N   N34       1.0  0.10500  0.74555  0.41195  1.0000
  C   C160      1.0  0.11027  0.76978  0.41280  1.0000
  H   H70       1.0  0.09758  0.78046  0.45538  1.0000
  N   N35       1.0  0.02286  0.99143  0.37608  1.0000
  C   C161      1.0  0.02455  0.01600  0.38160  1.0000
  H   H71       1.0  0.04068  0.02374  0.42343  1.0000
  N   N36       1.0  0.27343  0.49087  0.37377  1.0000
  C   C162      1.0  0.27514  0.51544  0.37953  1.0000
  H   H72       1.0  0.29141  0.52315  0.42102  1.0000
  N   N37       1.0  0.77012  0.15357  0.34826  1.0000
  C   C163      1.0  0.73833  0.15125  0.34061  1.0000
  H   H73       1.0  0.72960  0.13755  0.30200  1.0000
  N   N38       1.0  0.73739  0.85472  0.33620  1.0000
  C   C164      1.0  0.76929  0.85658  0.32953  1.0000
  H   H74       1.0  0.77862  0.87093  0.29567  1.0000
  N   N39       1.0  0.51998  0.65273  0.34587  1.0000
  C   C165      1.0  0.98812  0.65047  0.34034  1.0000
  H   H75       1.0  0.97899  0.63671  0.30283  1.0000
  N   N40       1.0  0.98807  0.35478  0.34249  1.0000
  C   C166      1.0  0.51997  0.35676  0.33719  1.0000
  H   H76       1.0  0.52928  0.37063  0.30065  1.0000
  C   C167      1.0  0.55882  0.10916  0.28674  1.0000
  C   C168      1.0  0.61102  0.14122  0.29373  1.0000
  N   N41       1.0  0.58359  0.14681  0.25249  1.0000
  C   C169      1.0  0.55812  0.13232  0.24426  1.0000
  C   C170      1.0  0.53446  0.14078  0.18801  1.0000
  O   O37       1.0  0.52734  0.16220  0.18997  1.0000
  O   O38       1.0  0.52466  0.12918  0.12280  1.0000
  H   H77       1.0  0.52985  0.11405  0.11007  1.0000
  C   C171      1.0  0.94967  0.89781  0.29004  1.0000
  C   C172      1.0  0.89755  0.86562  0.29466  1.0000
  N   N42       1.0  0.92562  0.85981  0.25759  1.0000
  C   C173      1.0  0.95117  0.87426  0.25077  1.0000
  C   C174      1.0  0.97547  0.86551  0.19825  1.0000
  O   O39       1.0  0.98183  0.84387  0.19966  1.0000
  O   O40       1.0  0.98459  0.87819  0.13499  1.0000
  H   H78       1.0  0.99893  0.87362  0.09539  1.0000
  N   N43       1.0  0.91827  0.10309  0.34044  1.0000
  C   C175      1.0  0.89237  0.11773  0.34401  1.0000
  H   H79       1.0  0.87164  0.11137  0.31918  1.0000
  N   N44       1.0  0.58932  0.90653  0.34237  1.0000
  C   C176      1.0  0.61522  0.89188  0.34537  1.0000
  H   H80       1.0  0.63541  0.89772  0.31563  1.0000
  C   C177      1.0  0.80870  0.60903  0.28700  1.0000
  C   C178      1.0  0.86064  0.64123  0.29693  1.0000
  N   N45       1.0  0.83325  0.64697  0.25577  1.0000
  C   C179      1.0  0.80792  0.63239  0.24602  1.0000
  C   C180      1.0  0.78423  0.64097  0.19012  1.0000
  O   O41       1.0  0.77738  0.66245  0.19182  1.0000
  O   O42       1.0  0.77490  0.62969  0.12357  1.0000
  H   H81       1.0  0.78003  0.61457  0.11040  1.0000
  C   C181      1.0  0.69975  0.39748  0.28697  1.0000
  C   C182      1.0  0.64754  0.36545  0.29459  1.0000
  N   N46       1.0  0.67532  0.35950  0.25601  1.0000
  C   C183      1.0  0.70088  0.37391  0.24764  1.0000
  C   C184      1.0  0.72487  0.36517  0.19383  1.0000
  O   O43       1.0  0.73065  0.34343  0.19382  1.0000
  O   O44       1.0  0.73261  0.37769  0.12871  1.0000
  H   H82       1.0  0.74638  0.37314  0.08747  1.0000
  N   N47       1.0  0.66836  0.60216  0.34108  1.0000
  C   C185      1.0  0.64237  0.61669  0.34499  1.0000
  H   H83       1.0  0.62177  0.61039  0.31904  1.0000
  N   N48       1.0  0.83964  0.40605  0.34024  1.0000
  C   C186      1.0  0.86561  0.39148  0.34349  1.0000
  H   H84       1.0  0.88599  0.39762  0.31568  1.0000
  N   N49       1.0  0.63133  0.26742  0.25241  1.0000
  C   C187      1.0  0.63759  0.24338  0.24465  1.0000
  H   H85       1.0  0.64429  0.23649  0.18389  1.0000
  N   N50       1.0  0.87241  0.73830  0.25649  1.0000
  C   C188      1.0  0.86565  0.76218  0.24598  1.0000
  H   H86       1.0  0.85587  0.76807  0.18723  1.0000
  C   C189      1.0  0.88582  0.27923  0.35304  1.0000
  C   C190      1.0  0.87098  0.22993  0.37094  1.0000
  N   N51       1.0  0.88943  0.23813  0.30312  1.0000
  C   C191      1.0  0.89762  0.26177  0.29099  1.0000
  C   C192      1.0  0.91543  0.26767  0.21632  1.0000
  O   O45       1.0  0.93449  0.25288  0.18811  1.0000
  O   O46       1.0  0.90481  0.28307  0.16432  1.0000
  H   H87       1.0  0.91354  0.28703  0.11234  1.0000
  C   C193      1.0  0.62122  0.72920  0.36123  1.0000
  C   C194      1.0  0.63436  0.77933  0.35849  1.0000
  N   N52       1.0  0.65038  0.76299  0.30745  1.0000
  C   C195      1.0  0.64519  0.73869  0.30512  1.0000
  C   C196      1.0  0.66225  0.72498  0.24420  1.0000
  O   O47       1.0  0.69032  0.72905  0.23719  1.0000
  O   O48       1.0  0.64973  0.71625  0.17660  1.0000
  H   H88       1.0  0.62928  0.71420  0.16921  1.0000
  C   C197      1.0  0.50234  0.97875  0.32358  1.0000
  C   C198      1.0  0.50333  0.03031  0.33174  1.0000
  N   N53       1.0  0.48324  0.01790  0.27787  1.0000
  C   C199      1.0  0.48163  0.99328  0.27067  1.0000
  C   C200      1.0  0.46178  0.98428  0.20482  1.0000
  O   O49       1.0  0.43558  0.99304  0.19753  1.0000
  O   O50       1.0  0.47203  0.97468  0.13573  1.0000
  H   H89       1.0  0.49143  0.96926  0.12863  1.0000
  C   C201      1.0  0.75272  0.47824  0.32167  1.0000
  C   C202      1.0  0.75380  0.52980  0.33031  1.0000
  N   N54       1.0  0.73352  0.51744  0.27684  1.0000
  C   C203      1.0  0.73186  0.49283  0.26947  1.0000
  C   C204      1.0  0.71184  0.48395  0.20379  1.0000
  O   O51       1.0  0.68548  0.49253  0.19841  1.0000
  O   O52       1.0  0.72197  0.47456  0.13419  1.0000
  H   H90       1.0  0.74141  0.46927  0.12642  1.0000
  C   C205      1.0  0.64452  0.20387  0.32184  1.0000
  C   C206      1.0  0.67504  0.19824  0.35047  1.0000
  C   C207      1.0  0.68672  0.17417  0.35104  1.0000
  C   C208      1.0  0.66548  0.15536  0.32846  1.0000
  C   C209      1.0  0.63365  0.15997  0.30541  1.0000
  C   C210      1.0  0.62429  0.18469  0.29868  1.0000
  H   H91       1.0  0.67329  0.13791  0.33098  1.0000
  H   H92       1.0  0.60163  0.18906  0.28269  1.0000
  H   H93       1.0  0.68964  0.21244  0.36512  1.0000
  C   C211      1.0  0.86310  0.80302  0.31534  1.0000
  C   C212      1.0  0.83195  0.80870  0.33727  1.0000
  C   C213      1.0  0.82056  0.83285  0.33903  1.0000
  C   C214      1.0  0.84242  0.85164  0.32153  1.0000
  C   C215      1.0  0.87466  0.84695  0.30377  1.0000
  C   C216      1.0  0.88408  0.82220  0.29893  1.0000
  H   H94       1.0  0.83472  0.86911  0.32392  1.0000
  H   H95       1.0  0.90705  0.81778  0.28747  1.0000
  H   H96       1.0  0.81697  0.79448  0.34808  1.0000
  C   C217      1.0  0.86151  0.20522  0.37333  1.0000
  C   C218      1.0  0.82943  0.19970  0.37671  1.0000
  C   C219      1.0  0.81773  0.17575  0.38062  1.0000
  C   C220      1.0  0.83978  0.15668  0.36929  1.0000
  C   C221      1.0  0.87273  0.16106  0.36953  1.0000
  C   C222      1.0  0.88275  0.18571  0.37132  1.0000
  H   H97       1.0  0.83183  0.13924  0.37183  1.0000
  H   H98       1.0  0.90614  0.18985  0.36868  1.0000
  H   H99       1.0  0.81410  0.21385  0.37060  1.0000
  C   C223      1.0  0.64425  0.80409  0.36059  1.0000
  C   C224      1.0  0.67644  0.80927  0.35496  1.0000
  C   C225      1.0  0.68898  0.83285  0.36455  1.0000
  C   C226      1.0  0.66737  0.85241  0.36200  1.0000
  C   C227      1.0  0.63444  0.84848  0.36944  1.0000
  C   C228      1.0  0.62384  0.82397  0.37214  1.0000
  H   H100      1.0  0.67592  0.86965  0.36635  1.0000
  H   H101      1.0  0.60034  0.82032  0.37469  1.0000
  H   H102      1.0  0.69139  0.79511  0.34400  1.0000
  C   C229      1.0  0.89409  0.70374  0.33221  1.0000
  C   C230      1.0  0.92507  0.69768  0.35562  1.0000
  C   C231      1.0  0.93667  0.67362  0.35385  1.0000
  C   C232      1.0  0.91514  0.65503  0.33145  1.0000
  C   C233      1.0  0.88323  0.65992  0.31021  1.0000
  C   C234      1.0  0.87387  0.68470  0.30674  1.0000
  H   H103      1.0  0.92291  0.63756  0.33165  1.0000
  H   H104      1.0  0.85110  0.68913  0.29253  1.0000
  H   H105      1.0  0.94018  0.71171  0.36771  1.0000
  C   C235      1.0  0.61365  0.30313  0.32889  1.0000
  C   C236      1.0  0.58280  0.30920  0.35344  1.0000
  C   C237      1.0  0.57120  0.33327  0.35064  1.0000
  C   C238      1.0  0.59281  0.35179  0.32782  1.0000
  C   C239      1.0  0.62474  0.34686  0.30698  1.0000
  C   C240      1.0  0.63397  0.32206  0.30335  1.0000
  H   H106      1.0  0.58511  0.36928  0.32785  1.0000
  H   H107      1.0  0.65672  0.31751  0.28923  1.0000
  H   H108      1.0  0.56788  0.29517  0.36741  1.0000
  C   C241      1.0  0.61176  0.70433  0.36559  1.0000
  C   C242      1.0  0.57964  0.69880  0.36774  1.0000
  C   C243      1.0  0.56789  0.67491  0.37505  1.0000
  C   C244      1.0  0.58984  0.65570  0.36681  1.0000
  C   C245      1.0  0.62275  0.66004  0.36906  1.0000
  C   C246      1.0  0.63281  0.68467  0.37044  1.0000
  H   H109      1.0  0.58179  0.63831  0.37056  1.0000
  H   H110      1.0  0.65623  0.68865  0.37164  1.0000
  H   H111      1.0  0.56423  0.71282  0.35941  1.0000
  C   C247      1.0  0.89566  0.30393  0.35707  1.0000
  C   C248      1.0  0.92784  0.30916  0.36023  1.0000
  C   C249      1.0  0.93982  0.33291  0.36999  1.0000
  C   C250      1.0  0.91802  0.35229  0.36358  1.0000
  C   C251      1.0  0.88506  0.34810  0.36652  1.0000
  C   C252      1.0  0.87473  0.32352  0.36615  1.0000
  H   H112      1.0  0.92622  0.36961  0.36889  1.0000
  H   H113      1.0  0.85125  0.31961  0.36549  1.0000
  H   H114      1.0  0.94306  0.29496  0.35399  1.0000
  C   C253      1.0  0.53163  0.09491  0.30559  1.0000
  C   C254      1.0  0.00290  0.10678  0.32300  1.0000
  C   C255      1.0  0.97449  0.09517  0.34652  1.0000
  C   C256      1.0  0.97479  0.06952  0.34194  1.0000
  C   C257      1.0  0.50327  0.05628  0.33121  1.0000
  C   C258      1.0  0.53160  0.06945  0.31752  1.0000
  H   H115      1.0  0.95447  0.06030  0.35496  1.0000
  H   H116      1.0  0.55203  0.06016  0.30691  1.0000
  H   H117      1.0  0.00272  0.12512  0.31944  1.0000
  C   C259      1.0  0.97636  0.91271  0.30789  1.0000
  C   C260      1.0  0.50536  0.90167  0.32803  1.0000
  C   C261      1.0  0.53316  0.91418  0.35106  1.0000
  C   C262      1.0  0.53198  0.93975  0.34231  1.0000
  C   C263      1.0  0.00331  0.95247  0.32612  1.0000
  C   C264      1.0  0.97559  0.93825  0.31563  1.0000
  H   H118      1.0  0.55211  0.94935  0.35365  1.0000
  H   H119      1.0  0.95439  0.94661  0.30856  1.0000
  H   H120      1.0  0.50614  0.88331  0.32778  1.0000
  C   C265      1.0  0.78164  0.59458  0.30522  1.0000
  C   C266      1.0  0.75283  0.60627  0.32305  1.0000
  C   C267      1.0  0.72458  0.59447  0.34678  1.0000
  C   C268      1.0  0.72504  0.56884  0.34140  1.0000
  C   C269      1.0  0.75361  0.55576  0.33020  1.0000
  C   C270      1.0  0.78182  0.56909  0.31652  1.0000
  H   H121      1.0  0.70483  0.55951  0.35480  1.0000
  H   H122      1.0  0.80232  0.55991  0.30567  1.0000
  H   H123      1.0  0.75248  0.62462  0.32002  1.0000
  C   C271      1.0  0.72659  0.41229  0.30393  1.0000
  C   C272      1.0  0.75563  0.40115  0.32291  1.0000
  C   C273      1.0  0.78341  0.41354  0.34689  1.0000
  C   C274      1.0  0.78229  0.43915  0.33949  1.0000
  C   C275      1.0  0.75366  0.45196  0.32367  1.0000
  C   C276      1.0  0.72590  0.43780  0.31300  1.0000
  H   H124      1.0  0.80244  0.44868  0.35128  1.0000
  H   H125      1.0  0.70469  0.44619  0.30686  1.0000
  H   H126      1.0  0.75641  0.38280  0.32148  1.0000
  C   C277      1.0  0.78482  0.17232  0.39081  1.0000
  C   C278      1.0  0.71897  0.17043  0.37054  1.0000
  N   N55       1.0  0.73377  0.18763  0.41963  1.0000
  C   C279      1.0  0.76487  0.18926  0.43511  1.0000
  C   C280      1.0  0.77415  0.20662  0.49745  1.0000
  O   O53       1.0  0.76103  0.22629  0.49879  1.0000
  O   O54       1.0  0.78981  0.20166  0.56489  1.0000
  H   H127      1.0  0.79868  0.18747  0.57560  1.0000
  C   C281      1.0  0.72206  0.83544  0.37339  1.0000
  C   C282      1.0  0.78811  0.83668  0.35568  1.0000
  N   N56       1.0  0.77260  0.81893  0.39997  1.0000
  C   C283      1.0  0.74142  0.81740  0.41361  1.0000
  C   C284      1.0  0.73168  0.79919  0.47199  1.0000
  O   O55       1.0  0.74390  0.77921  0.46739  1.0000
  O   O56       1.0  0.71684  0.80342  0.54159  1.0000
  H   H128      1.0  0.70873  0.81763  0.55620  1.0000
  C   C285      1.0  0.53505  0.67160  0.38657  1.0000
  C   C286      1.0  0.96908  0.66978  0.37082  1.0000
  N   N57       1.0  0.98437  0.68706  0.41828  1.0000
  C   C287      1.0  0.51558  0.68876  0.43134  1.0000
  C   C288      1.0  0.52550  0.70637  0.49195  1.0000
  O   O57       1.0  0.51210  0.72593  0.49398  1.0000
  O   O58       1.0  0.54126  0.70149  0.55928  1.0000
  H   H129      1.0  0.55025  0.68734  0.57000  1.0000
  C   C289      1.0  0.97269  0.33592  0.38224  1.0000
  C   C290      1.0  0.53877  0.33725  0.36724  1.0000
  N   N58       1.0  0.52315  0.31992  0.41355  1.0000
  C   C291      1.0  0.99190  0.31843  0.42618  1.0000
  C   C292      1.0  0.98171  0.30063  0.48565  1.0000
  O   O59       1.0  0.99468  0.28089  0.48606  1.0000
  O   O60       1.0  0.96576  0.30525  0.55285  1.0000
  H   H130      1.0  0.95699  0.31943  0.56451  1.0000
  N   N59       1.0  0.58706  0.10256  0.32244  1.0000
  C   C293      1.0  0.61309  0.11696  0.32416  1.0000
  H   H131      1.0  0.63246  0.11075  0.35711  1.0000
  N   N60       1.0  0.92087  0.90459  0.32136  1.0000
  C   C294      1.0  0.89490  0.89012  0.32181  1.0000
  H   H132      1.0  0.87503  0.89655  0.35156  1.0000
  C   C295      1.0  0.94774  0.10985  0.36680  1.0000
  C   C296      1.0  0.89569  0.14227  0.37007  1.0000
  N   N61       1.0  0.92443  0.14791  0.40292  1.0000
  C   C297      1.0  0.94995  0.13340  0.40586  1.0000
  C   C298      1.0  0.97507  0.14200  0.45645  1.0000
  O   O61       1.0  0.98212  0.16341  0.45116  1.0000
  O   O62       1.0  0.98490  0.13137  0.52385  1.0000
  H   H133      1.0  0.97970  0.11646  0.53965  1.0000
  C   C299      1.0  0.56028  0.90017  0.37352  1.0000
  C   C300      1.0  0.61202  0.86759  0.37464  1.0000
  N   N62       1.0  0.58384  0.86241  0.41220  1.0000
  C   C301      1.0  0.55857  0.87715  0.41685  1.0000
  C   C302      1.0  0.53387  0.86903  0.47018  1.0000
  O   O63       1.0  0.52660  0.84763  0.46845  1.0000
  O   O64       1.0  0.52319  0.88089  0.53361  1.0000
  H   H134      1.0  0.52834  0.89602  0.54636  1.0000
  N   N63       1.0  0.83693  0.60235  0.32253  1.0000
  C   C303      1.0  0.86289  0.61680  0.32530  1.0000
  H   H135      1.0  0.88216  0.61049  0.35844  1.0000
  N   N64       1.0  0.67121  0.40437  0.31974  1.0000
  C   C304      1.0  0.64521  0.38997  0.32179  1.0000
  H   H136      1.0  0.62558  0.39650  0.35250  1.0000
  C   C305      1.0  0.69776  0.60898  0.36780  1.0000
  C   C306      1.0  0.64563  0.64122  0.37130  1.0000
  N   N65       1.0  0.67430  0.64690  0.40452  1.0000
  C   C307      1.0  0.69986  0.63245  0.40746  1.0000
  C   C308      1.0  0.72494  0.64115  0.45792  1.0000
  O   O65       1.0  0.73201  0.66255  0.45284  1.0000
  O   O66       1.0  0.73533  0.63033  0.52423  1.0000
  H   H137      1.0  0.73027  0.61536  0.53979  1.0000
  C   C309      1.0  0.81045  0.39942  0.36932  1.0000
  C   C310      1.0  0.86238  0.36703  0.37079  1.0000
  N   N66       1.0  0.83401  0.36153  0.40649  1.0000
  C   C311      1.0  0.80863  0.37617  0.41094  1.0000
  C   C312      1.0  0.78373  0.36777  0.46288  1.0000
  O   O67       1.0  0.77680  0.34630  0.46061  1.0000
  O   O68       1.0  0.77312  0.37919  0.52750  1.0000
  H   H138      1.0  0.77806  0.39431  0.54119  1.0000
  C   C313      1.0  0.62308  0.27834  0.33102  1.0000
  C   C314      1.0  0.63491  0.22845  0.32109  1.0000
  N   N67       1.0  0.62744  0.23940  0.39994  1.0000
  C   C315      1.0  0.62087  0.26341  0.40874  1.0000
  C   C316      1.0  0.61371  0.27222  0.49376  1.0000
  O   O69       1.0  0.59694  0.25998  0.54244  1.0000
  O   O70       1.0  0.63101  0.28673  0.53308  1.0000
  H   H139      1.0  0.64621  0.29521  0.50749  1.0000
  C   C317      1.0  0.88478  0.72865  0.33293  1.0000
  C   C318      1.0  0.87261  0.77842  0.31632  1.0000
  N   N68       1.0  0.88398  0.76878  0.39360  1.0000
  C   C319      1.0  0.89072  0.74489  0.40540  1.0000
  C   C320      1.0  0.90126  0.73754  0.48942  1.0000
  O   O71       1.0  0.91963  0.75054  0.52998  1.0000
  O   O72       1.0  0.88576  0.72378  0.53764  1.0000
  H   H140      1.0  0.86973  0.71486  0.51928  1.0000
  N   N69       1.0  0.86707  0.27100  0.42036  1.0000
  C   C321      1.0  0.85887  0.24746  0.43072  1.0000
  H   H141      1.0  0.84449  0.24272  0.48278  1.0000
  N   N70       1.0  0.60500  0.74555  0.41195  1.0000
  C   C322      1.0  0.61027  0.76978  0.41280  1.0000
  H   H142      1.0  0.59758  0.78046  0.45538  1.0000
  N   N71       1.0  0.52286  0.99143  0.37608  1.0000
  C   C323      1.0  0.52454  0.01600  0.38160  1.0000
  H   H143      1.0  0.54068  0.02374  0.42343  1.0000
  N   N72       1.0  0.77343  0.49087  0.37377  1.0000
  C   C324      1.0  0.77514  0.51544  0.37953  1.0000
  H   H144      1.0  0.79141  0.52315  0.42102  1.0000
