data_image0
_chemical_formula_structural       N12C4NH3C4NH3C4NH3C4NH3C4NH3C4NH3C4NH3C4NH3C4NH3C4NH3C4NH3C4NH3NC18H12NC18H12NC18H12NC18H12NC18H12NC18H12NC18H12NC18H12NC18H12NC18H12NC18H12NC18H12C4NH3C4NH3C4NH3C4NH3C4NH3C4NH3N24
_chemical_formula_sum              "N66 C288 H198"
_cell_length_a       63.7044
_cell_length_b       63.7044
_cell_length_c       14.6783
_cell_angle_alpha    90
_cell_angle_beta     90
_cell_angle_gamma    120

_space_group_name_H-M_alt    "P 1"
_space_group_IT_number       1

loop_
  _space_group_symop_operation_xyz
  'x, y, z'

loop_
  _atom_site_type_symbol
  _atom_site_label
  _atom_site_symmetry_multiplicity
  _atom_site_fract_x
  _atom_site_fract_y
  _atom_site_fract_z
  _atom_site_occupancy
  N   N1        1.0  0.20908  0.40557  0.30975  1.0000
  N   N2        1.0  0.19698  0.38176  0.30988  1.0000
  N   N3        1.0  0.60909  0.79617  0.30987  1.0000
  N   N4        1.0  0.63290  0.80789  0.31002  1.0000
  N   N5        1.0  0.21842  0.80559  0.30980  1.0000
  N   N6        1.0  0.20670  0.81768  0.30992  1.0000
  N   N7        1.0  0.81530  0.59935  0.30976  1.0000
  N   N8        1.0  0.82739  0.62316  0.30987  1.0000
  N   N9        1.0  0.41532  0.20869  0.30977  1.0000
  N   N10       1.0  0.39151  0.19698  0.30988  1.0000
  N   N11       1.0  0.80590  0.19928  0.30987  1.0000
  N   N12       1.0  0.81762  0.18720  0.31002  1.0000
  C   C1        1.0  0.21951  0.18394  0.33383  1.0000
  C   C2        1.0  0.20524  0.18283  0.25791  1.0000
  C   C3        1.0  0.19168  0.19501  0.25686  1.0000
  C   C4        1.0  0.19310  0.20925  0.33411  1.0000
  N   N13       1.0  0.17709  0.19163  0.18400  1.0000
  H   H1        1.0  0.17591  0.18116  0.13365  1.0000
  H   H2        1.0  0.16558  0.19738  0.18402  1.0000
  H   H3        1.0  0.20367  0.17210  0.20370  1.0000
  C   C5        1.0  0.83073  0.02831  0.33380  1.0000
  C   C6        1.0  0.83182  0.01514  0.25786  1.0000
  C   C7        1.0  0.81962  0.98939  0.25681  1.0000
  C   C8        1.0  0.80539  0.97658  0.33408  1.0000
  N   N14       1.0  0.82300  0.97819  0.18395  1.0000
  H   H4        1.0  0.83347  0.98747  0.13358  1.0000
  H   H5        1.0  0.81723  0.96091  0.18397  1.0000
  H   H6        1.0  0.84255  0.02429  0.20363  1.0000
  C   C9        1.0  0.98635  0.79516  0.33381  1.0000
  C   C10       1.0  0.99952  0.80944  0.25790  1.0000
  C   C11       1.0  0.02526  0.82299  0.25685  1.0000
  C   C12       1.0  0.03807  0.82157  0.33409  1.0000
  N   N15       1.0  0.03646  0.83760  0.18403  1.0000
  H   H7        1.0  0.02718  0.83879  0.13369  1.0000
  H   H8        1.0  0.05373  0.84911  0.18405  1.0000
  H   H9        1.0  0.99036  0.81102  0.20370  1.0000
  C   C13       1.0  0.80492  0.82103  0.33376  1.0000
  C   C14       1.0  0.81929  0.82222  0.25804  1.0000
  C   C15       1.0  0.83284  0.81003  0.25703  1.0000
  C   C16       1.0  0.83130  0.79569  0.33408  1.0000
  N   N16       1.0  0.84752  0.81351  0.18443  1.0000
  H   H10       1.0  0.84865  0.82389  0.13382  1.0000
  H   H11       1.0  0.85888  0.80756  0.18403  1.0000
  H   H12       1.0  0.82096  0.83305  0.20401  1.0000
  C   C17       1.0  0.19366  0.97663  0.33382  1.0000
  C   C18       1.0  0.19253  0.98980  0.25795  1.0000
  C   C19       1.0  0.20472  0.01554  0.25691  1.0000
  C   C20       1.0  0.21898  0.02836  0.33411  1.0000
  N   N17       1.0  0.20131  0.02675  0.18411  1.0000
  H   H13       1.0  0.19082  0.01746  0.13380  1.0000
  H   H14       1.0  0.20707  0.04402  0.18414  1.0000
  H   H15       1.0  0.18178  0.98065  0.20377  1.0000
  C   C21       1.0  0.03803  0.20977  0.33384  1.0000
  C   C22       1.0  0.02486  0.19555  0.25784  1.0000
  C   C23       1.0  0.99912  0.18199  0.25677  1.0000
  C   C24       1.0  0.98630  0.18338  0.33409  1.0000
  N   N18       1.0  0.98792  0.16744  0.18386  1.0000
  H   H16       1.0  0.99720  0.16627  0.13346  1.0000
  H   H17       1.0  0.97064  0.15592  0.18385  1.0000
  H   H18       1.0  0.03402  0.19399  0.20357  1.0000
  C   C25       1.0  0.25430  0.60152  0.32891  1.0000
  C   C26       1.0  0.26794  0.61957  0.26343  1.0000
  C   C27       1.0  0.26942  0.64252  0.26536  1.0000
  C   C28       1.0  0.25581  0.64660  0.33314  1.0000
  N   N19       1.0  0.28475  0.65984  0.20594  1.0000
  H   H19       1.0  0.29444  0.65662  0.16299  1.0000
  H   H20       1.0  0.28862  0.67658  0.21123  1.0000
  H   H21       1.0  0.27824  0.61664  0.21726  1.0000
  C   C29       1.0  0.41314  0.64549  0.32896  1.0000
  C   C30       1.0  0.39508  0.64112  0.26358  1.0000
  C   C31       1.0  0.37211  0.61965  0.26556  1.0000
  C   C32       1.0  0.36805  0.60193  0.33317  1.0000
  N   N20       1.0  0.35478  0.61770  0.20630  1.0000
  H   H22       1.0  0.35803  0.63052  0.16288  1.0000
  H   H23       1.0  0.33808  0.60472  0.21092  1.0000
  H   H24       1.0  0.39799  0.65437  0.21761  1.0000
  C   C33       1.0  0.36913  0.76033  0.32901  1.0000
  C   C34       1.0  0.37353  0.74669  0.26350  1.0000
  C   C35       1.0  0.39500  0.74520  0.26541  1.0000
  C   C36       1.0  0.41271  0.75884  0.33310  1.0000
  N   N21       1.0  0.39699  0.72988  0.20596  1.0000
  H   H25       1.0  0.38407  0.72018  0.16305  1.0000
  H   H26       1.0  0.40986  0.72601  0.21120  1.0000
  H   H27       1.0  0.36030  0.73639  0.21735  1.0000
  C   C37       1.0  0.77006  0.40338  0.32902  1.0000
  C   C38       1.0  0.75640  0.38534  0.26355  1.0000
  C   C39       1.0  0.75492  0.36238  0.26547  1.0000
  C   C40       1.0  0.76856  0.35831  0.33314  1.0000
  N   N22       1.0  0.73957  0.34506  0.20611  1.0000
  H   H28       1.0  0.72986  0.34827  0.16323  1.0000
  H   H29       1.0  0.73569  0.32832  0.21139  1.0000
  H   H30       1.0  0.74610  0.38827  0.21744  1.0000
  C   C41       1.0  0.61122  0.35941  0.32894  1.0000
  C   C42       1.0  0.62924  0.36382  0.26337  1.0000
  C   C43       1.0  0.65220  0.38529  0.26525  1.0000
  C   C44       1.0  0.65630  0.40298  0.33306  1.0000
  N   N23       1.0  0.66950  0.38728  0.20576  1.0000
  H   H31       1.0  0.66627  0.37437  0.16279  1.0000
  H   H32       1.0  0.68625  0.40014  0.21101  1.0000
  H   H33       1.0  0.62630  0.35060  0.21717  1.0000
  C   C45       1.0  0.65523  0.24455  0.32898  1.0000
  C   C46       1.0  0.65085  0.25820  0.26350  1.0000
  C   C47       1.0  0.62938  0.25969  0.26544  1.0000
  C   C48       1.0  0.61166  0.24604  0.33306  1.0000
  N   N24       1.0  0.62743  0.27506  0.20612  1.0000
  H   H34       1.0  0.64025  0.28463  0.16270  1.0000
  H   H35       1.0  0.61445  0.27879  0.21072  1.0000
  H   H36       1.0  0.66410  0.26853  0.21750  1.0000
  N   N25       1.0  0.14268  0.26311  0.35959  1.0000
  C   C49       1.0  0.11680  0.25019  0.35296  1.0000
  C   C50       1.0  0.15531  0.28901  0.36455  1.0000
  C   C51       1.0  0.15585  0.25032  0.35420  1.0000
  C   C52       1.0  0.15469  0.23477  0.42524  1.0000
  C   C53       1.0  0.16721  0.22169  0.41948  1.0000
  C   C54       1.0  0.18125  0.22341  0.34191  1.0000
  C   C55       1.0  0.18310  0.23976  0.27259  1.0000
  C   C56       1.0  0.17049  0.25272  0.27810  1.0000
  C   C57       1.0  0.10510  0.24286  0.26778  1.0000
  C   C58       1.0  0.07955  0.22999  0.26125  1.0000
  C   C59       1.0  0.06431  0.22350  0.33936  1.0000
  C   C60       1.0  0.07643  0.23135  0.42448  1.0000
  C   C61       1.0  0.10201  0.24436  0.43121  1.0000
  C   C62       1.0  0.16107  0.30080  0.44975  1.0000
  C   C63       1.0  0.17374  0.32634  0.45589  1.0000
  C   C64       1.0  0.18160  0.34147  0.37738  1.0000
  C   C65       1.0  0.17522  0.32928  0.29207  1.0000
  C   C66       1.0  0.16236  0.30370  0.28570  1.0000
  H   H37       1.0  0.07228  0.22576  0.19737  1.0000
  H   H38       1.0  0.11526  0.24705  0.20961  1.0000
  H   H39       1.0  0.10989  0.24939  0.49408  1.0000
  H   H40       1.0  0.06666  0.22731  0.48360  1.0000
  H   H41       1.0  0.14439  0.23268  0.48161  1.0000
  H   H42       1.0  0.16536  0.21022  0.47161  1.0000
  H   H43       1.0  0.15595  0.29072  0.50823  1.0000
  H   H44       1.0  0.17683  0.33367  0.51968  1.0000
  H   H45       1.0  0.18024  0.33900  0.23272  1.0000
  H   H46       1.0  0.15828  0.29575  0.22278  1.0000
  H   H47       1.0  0.17191  0.26386  0.22548  1.0000
  H   H48       1.0  0.19354  0.24219  0.21625  1.0000
  N   N26       1.0  0.75154  0.87231  0.35956  1.0000
  C   C67       1.0  0.76446  0.85935  0.35290  1.0000
  C   C68       1.0  0.72564  0.85904  0.36457  1.0000
  C   C69       1.0  0.76432  0.89827  0.35419  1.0000
  C   C70       1.0  0.77990  0.91265  0.42517  1.0000
  C   C71       1.0  0.79297  0.93826  0.41942  1.0000
  C   C72       1.0  0.79123  0.95057  0.34190  1.0000
  C   C73       1.0  0.77486  0.93607  0.27263  1.0000
  C   C74       1.0  0.76189  0.91051  0.27816  1.0000
  C   C75       1.0  0.77204  0.85524  0.26780  1.0000
  C   C76       1.0  0.78492  0.84256  0.26124  1.0000
  C   C77       1.0  0.79118  0.83358  0.33927  1.0000
  C   C78       1.0  0.78310  0.83761  0.42430  1.0000
  C   C79       1.0  0.77007  0.85016  0.43104  1.0000
  C   C80       1.0  0.71386  0.85314  0.44977  1.0000
  C   C81       1.0  0.68832  0.84027  0.45592  1.0000
  C   C82       1.0  0.67319  0.83288  0.37741  1.0000
  C   C83       1.0  0.68537  0.83857  0.29210  1.0000
  C   C84       1.0  0.71096  0.85128  0.28573  1.0000
  H   H49       1.0  0.78934  0.83973  0.19739  1.0000
  H   H50       1.0  0.76803  0.86138  0.20969  1.0000
  H   H51       1.0  0.76487  0.85284  0.49386  1.0000
  H   H52       1.0  0.78697  0.83171  0.48336  1.0000
  H   H53       1.0  0.78200  0.90444  0.48151  1.0000
  H   H54       1.0  0.80446  0.94787  0.47151  1.0000
  H   H55       1.0  0.72394  0.85819  0.50825  1.0000
  H   H56       1.0  0.68099  0.83612  0.51973  1.0000
  H   H57       1.0  0.67566  0.83378  0.23275  1.0000
  H   H58       1.0  0.71890  0.85507  0.22282  1.0000
  H   H59       1.0  0.75074  0.90079  0.22557  1.0000
  H   H60       1.0  0.77242  0.94409  0.21633  1.0000
  N   N27       1.0  0.14235  0.87198  0.35960  1.0000
  C   C85       1.0  0.15531  0.89786  0.35295  1.0000
  C   C86       1.0  0.15562  0.85935  0.36457  1.0000
  C   C87       1.0  0.11639  0.85881  0.35420  1.0000
  C   C88       1.0  0.10201  0.85998  0.42523  1.0000
  C   C89       1.0  0.07640  0.84746  0.41946  1.0000
  C   C90       1.0  0.06409  0.83342  0.34190  1.0000
  C   C91       1.0  0.07859  0.83157  0.27257  1.0000
  C   C92       1.0  0.10415  0.84417  0.27810  1.0000
  C   C93       1.0  0.15958  0.90956  0.26780  1.0000
  C   C94       1.0  0.17227  0.93511  0.26126  1.0000
  C   C95       1.0  0.18110  0.95035  0.33934  1.0000
  C   C96       1.0  0.17692  0.93824  0.42443  1.0000
  C   C97       1.0  0.16436  0.91265  0.43117  1.0000
  C   C98       1.0  0.16164  0.85358  0.44977  1.0000
  C   C99       1.0  0.17451  0.84091  0.45591  1.0000
  C   C100      1.0  0.18179  0.83306  0.37740  1.0000
  C   C101      1.0  0.17600  0.83945  0.29209  1.0000
  C   C102      1.0  0.16327  0.85232  0.28572  1.0000
  H   H61       1.0  0.17522  0.94237  0.19739  1.0000
  H   H62       1.0  0.15355  0.89940  0.20966  1.0000
  H   H63       1.0  0.16158  0.90477  0.49402  1.0000
  H   H64       1.0  0.18272  0.94800  0.48352  1.0000
  H   H65       1.0  0.11022  0.87026  0.48163  1.0000
  H   H66       1.0  0.06679  0.84929  0.47163  1.0000
  H   H67       1.0  0.15666  0.85868  0.50825  1.0000
  H   H68       1.0  0.17874  0.83781  0.51970  1.0000
  H   H69       1.0  0.18070  0.83444  0.23274  1.0000
  H   H70       1.0  0.15941  0.85640  0.22281  1.0000
  H   H71       1.0  0.11387  0.84276  0.22547  1.0000
  H   H72       1.0  0.07057  0.82114  0.21623  1.0000
  N   N28       1.0  0.88170  0.74181  0.35956  1.0000
  C   C103      1.0  0.90758  0.75473  0.35293  1.0000
  C   C104      1.0  0.86907  0.71591  0.36452  1.0000
  C   C105      1.0  0.86852  0.75460  0.35417  1.0000
  C   C106      1.0  0.86968  0.77014  0.42524  1.0000
  C   C107      1.0  0.85717  0.78323  0.41948  1.0000
  C   C108      1.0  0.84315  0.78152  0.34189  1.0000
  C   C109      1.0  0.84130  0.76519  0.27252  1.0000
  C   C110      1.0  0.85391  0.75222  0.27804  1.0000
  C   C111      1.0  0.91928  0.76213  0.26777  1.0000
  C   C112      1.0  0.94483  0.77500  0.26124  1.0000
  C   C113      1.0  0.96007  0.78143  0.33933  1.0000
  C   C114      1.0  0.94795  0.77353  0.42444  1.0000
  C   C115      1.0  0.92237  0.76051  0.43116  1.0000
  C   C116      1.0  0.86334  0.70413  0.44973  1.0000
  C   C117      1.0  0.85066  0.67858  0.45586  1.0000
  C   C118      1.0  0.84279  0.66345  0.37735  1.0000
  C   C119      1.0  0.84914  0.67564  0.29204  1.0000
  C   C120      1.0  0.86200  0.70122  0.28567  1.0000
  H   H73       1.0  0.95210  0.77928  0.19736  1.0000
  H   H74       1.0  0.90912  0.75798  0.20961  1.0000
  H   H75       1.0  0.91449  0.75544  0.49402  1.0000
  H   H76       1.0  0.95772  0.77753  0.48354  1.0000
  H   H77       1.0  0.87996  0.77220  0.48166  1.0000
  H   H78       1.0  0.85899  0.79467  0.47168  1.0000
  H   H79       1.0  0.86847  0.71420  0.50821  1.0000
  H   H80       1.0  0.84759  0.67125  0.51964  1.0000
  H   H81       1.0  0.84410  0.66592  0.23269  1.0000
  H   H82       1.0  0.86606  0.70917  0.22275  1.0000
  H   H83       1.0  0.85250  0.74111  0.22537  1.0000
  H   H84       1.0  0.83089  0.76279  0.21614  1.0000
  N   N29       1.0  0.27286  0.13264  0.35959  1.0000
  C   C121      1.0  0.25994  0.14560  0.35296  1.0000
  C   C122      1.0  0.29876  0.14591  0.36454  1.0000
  C   C123      1.0  0.26007  0.10667  0.35419  1.0000
  C   C124      1.0  0.24453  0.09229  0.42526  1.0000
  C   C125      1.0  0.23144  0.06668  0.41949  1.0000
  C   C126      1.0  0.23314  0.05437  0.34191  1.0000
  C   C127      1.0  0.24948  0.06887  0.27255  1.0000
  C   C128      1.0  0.26245  0.09443  0.27807  1.0000
  C   C129      1.0  0.25257  0.14993  0.26779  1.0000
  C   C130      1.0  0.23970  0.16261  0.26126  1.0000
  C   C131      1.0  0.23324  0.17138  0.33936  1.0000
  C   C132      1.0  0.24111  0.16714  0.42448  1.0000
  C   C133      1.0  0.25413  0.15458  0.43120  1.0000
  C   C134      1.0  0.31055  0.15196  0.44974  1.0000
  C   C135      1.0  0.33609  0.16484  0.45588  1.0000
  C   C136      1.0  0.35121  0.17208  0.37736  1.0000
  C   C137      1.0  0.33903  0.16625  0.29205  1.0000
  C   C138      1.0  0.31344  0.15353  0.28569  1.0000
  H   H85       1.0  0.23545  0.16562  0.19738  1.0000
  H   H86       1.0  0.25675  0.14395  0.20962  1.0000
  H   H87       1.0  0.25917  0.15174  0.49407  1.0000
  H   H88       1.0  0.23709  0.17288  0.48358  1.0000
  H   H89       1.0  0.24247  0.10050  0.48168  1.0000
  H   H90       1.0  0.22000  0.05707  0.47169  1.0000
  H   H91       1.0  0.30047  0.14701  0.50823  1.0000
  H   H92       1.0  0.34342  0.16909  0.51966  1.0000
  H   H93       1.0  0.34874  0.17091  0.23270  1.0000
  H   H94       1.0  0.30550  0.14963  0.22277  1.0000
  H   H95       1.0  0.27357  0.10415  0.22541  1.0000
  H   H96       1.0  0.25189  0.06085  0.21618  1.0000
  N   N30       1.0  0.88203  0.13296  0.35963  1.0000
  C   C139      1.0  0.86906  0.10708  0.35295  1.0000
  C   C140      1.0  0.86876  0.14559  0.36461  1.0000
  C   C141      1.0  0.90799  0.14614  0.35424  1.0000
  C   C142      1.0  0.92237  0.14494  0.42520  1.0000
  C   C143      1.0  0.94798  0.15745  0.41940  1.0000
  C   C144      1.0  0.96029  0.17153  0.34191  1.0000
  C   C145      1.0  0.94579  0.17341  0.27267  1.0000
  C   C146      1.0  0.92022  0.16081  0.27821  1.0000
  C   C147      1.0  0.86481  0.09539  0.26780  1.0000
  C   C148      1.0  0.85213  0.06983  0.26125  1.0000
  C   C149      1.0  0.84328  0.05459  0.33932  1.0000
  C   C150      1.0  0.84745  0.06670  0.42441  1.0000
  C   C151      1.0  0.86001  0.09229  0.43115  1.0000
  C   C152      1.0  0.86286  0.15148  0.44981  1.0000
  C   C153      1.0  0.84999  0.16415  0.45595  1.0000
  C   C154      1.0  0.84260  0.17189  0.37743  1.0000
  C   C155      1.0  0.84829  0.16540  0.29213  1.0000
  C   C156      1.0  0.86100  0.15252  0.28577  1.0000
  H   H97       1.0  0.84917  0.06258  0.19737  1.0000
  H   H98       1.0  0.87084  0.10555  0.20966  1.0000
  H   H99       1.0  0.86279  0.10016  0.49401  1.0000
  H   H100      1.0  0.84166  0.05693  0.48350  1.0000
  H   H101      1.0  0.91416  0.13462  0.48153  1.0000
  H   H102      1.0  0.95760  0.15560  0.47152  1.0000
  H   H103      1.0  0.86792  0.14646  0.50829  1.0000
  H   H104      1.0  0.84585  0.16734  0.51975  1.0000
  H   H105      1.0  0.84351  0.17033  0.23278  1.0000
  H   H106      1.0  0.86479  0.14837  0.22286  1.0000
  H   H107      1.0  0.91050  0.16225  0.22565  1.0000
  H   H108      1.0  0.95380  0.18388  0.21639  1.0000
  N   N31       1.0  0.27251  0.52357  0.35800  1.0000
  C   C157      1.0  0.29840  0.53779  0.35856  1.0000
  C   C158      1.0  0.25932  0.49764  0.36186  1.0000
  C   C159      1.0  0.26081  0.53761  0.34889  1.0000
  C   C160      1.0  0.26013  0.54721  0.26297  1.0000
  C   C161      1.0  0.25671  0.56737  0.25574  1.0000
  C   C162      1.0  0.25406  0.57888  0.33413  1.0000
  C   C163      1.0  0.25300  0.56803  0.41961  1.0000
  C   C164      1.0  0.25649  0.54791  0.42688  1.0000
  C   C165      1.0  0.31126  0.54351  0.27537  1.0000
  C   C166      1.0  0.33489  0.56357  0.26840  1.0000
  C   C167      1.0  0.34608  0.57923  0.34345  1.0000
  C   C168      1.0  0.33399  0.57236  0.42844  1.0000
  C   C169      1.0  0.31055  0.55196  0.43583  1.0000
  C   C170      1.0  0.26122  0.48319  0.29279  1.0000
  C   C171      1.0  0.24859  0.45761  0.29886  1.0000
  C   C172      1.0  0.23359  0.44538  0.37452  1.0000
  C   C173      1.0  0.23088  0.45994  0.44133  1.0000
  C   C174      1.0  0.24370  0.48549  0.43576  1.0000
  H   H109      1.0  0.34308  0.56780  0.20584  1.0000
  H   H110      1.0  0.30270  0.53443  0.21725  1.0000
  H   H111      1.0  0.30140  0.54899  0.49600  1.0000
  H   H112      1.0  0.34127  0.58333  0.48414  1.0000
  H   H113      1.0  0.26415  0.54082  0.20556  1.0000
  H   H114      1.0  0.25737  0.57425  0.19221  1.0000
  H   H115      1.0  0.27211  0.49126  0.23771  1.0000
  H   H116      1.0  0.25102  0.44794  0.24840  1.0000
  H   H117      1.0  0.21968  0.45198  0.49592  1.0000
  H   H118      1.0  0.24164  0.49527  0.48661  1.0000
  H   H119      1.0  0.25813  0.54223  0.49027  1.0000
  H   H120      1.0  0.25174  0.57593  0.47852  1.0000
  N   N32       1.0  0.49108  0.74164  0.35821  1.0000
  C   C175      1.0  0.47686  0.75331  0.35844  1.0000
  C   C176      1.0  0.51701  0.75438  0.36197  1.0000
  C   C177      1.0  0.47705  0.71591  0.34903  1.0000
  C   C178      1.0  0.46747  0.70562  0.26308  1.0000
  C   C179      1.0  0.44728  0.68207  0.25586  1.0000
  C   C180      1.0  0.43579  0.66789  0.33422  1.0000
  C   C181      1.0  0.44665  0.67765  0.41970  1.0000
  C   C182      1.0  0.46672  0.70129  0.42700  1.0000
  C   C183      1.0  0.47114  0.76046  0.27529  1.0000
  C   C184      1.0  0.45105  0.76400  0.26830  1.0000
  C   C185      1.0  0.43541  0.75957  0.34336  1.0000
  C   C186      1.0  0.44231  0.75439  0.42839  1.0000
  C   C187      1.0  0.46265  0.75125  0.43563  1.0000
  C   C188      1.0  0.53145  0.77072  0.29284  1.0000
  C   C189      1.0  0.55704  0.78368  0.29888  1.0000
  C   C190      1.0  0.56927  0.78093  0.37455  1.0000
  C   C191      1.0  0.55473  0.76368  0.44141  1.0000
  C   C192      1.0  0.52917  0.75093  0.43587  1.0000
  H   H121      1.0  0.44685  0.76798  0.20575  1.0000
  H   H122      1.0  0.48022  0.76099  0.21718  1.0000
  H   H123      1.0  0.46567  0.74516  0.49592  1.0000
  H   H124      1.0  0.43133  0.75067  0.48410  1.0000
  H   H125      1.0  0.47382  0.71605  0.20569  1.0000
  H   H126      1.0  0.44039  0.67586  0.19232  1.0000
  H   H127      1.0  0.52338  0.77353  0.23775  1.0000
  H   H128      1.0  0.56671  0.79577  0.24838  1.0000
  H   H129      1.0  0.56270  0.76044  0.49602  1.0000
  H   H130      1.0  0.51940  0.73910  0.48677  1.0000
  H   H131      1.0  0.47244  0.70858  0.49040  1.0000
  H   H132      1.0  0.43874  0.66850  0.47861  1.0000
  N   N33       1.0  0.27300  0.74216  0.35837  1.0000
  C   C193      1.0  0.26132  0.71627  0.35854  1.0000
  C   C194      1.0  0.26026  0.75536  0.36205  1.0000
  C   C195      1.0  0.29873  0.75386  0.34900  1.0000
  C   C196      1.0  0.30903  0.75458  0.26308  1.0000
  C   C197      1.0  0.33258  0.75796  0.25587  1.0000
  C   C198      1.0  0.34675  0.76060  0.33424  1.0000
  C   C199      1.0  0.33697  0.76167  0.41974  1.0000
  C   C200      1.0  0.31333  0.75811  0.42700  1.0000
  C   C201      1.0  0.25420  0.70340  0.27537  1.0000
  C   C202      1.0  0.25060  0.67976  0.26838  1.0000
  C   C203      1.0  0.25507  0.66857  0.34341  1.0000
  C   C204      1.0  0.26029  0.68066  0.42840  1.0000
  C   C205      1.0  0.26338  0.70412  0.43573  1.0000
  C   C206      1.0  0.24392  0.75345  0.29294  1.0000
  C   C207      1.0  0.23097  0.76609  0.29894  1.0000
  C   C208      1.0  0.23373  0.78108  0.37458  1.0000
  C   C209      1.0  0.25099  0.78380  0.44142  1.0000
  C   C210      1.0  0.26373  0.77099  0.43591  1.0000
  H   H133      1.0  0.24668  0.67160  0.20578  1.0000
  H   H134      1.0  0.25369  0.71197  0.21725  1.0000
  H   H135      1.0  0.26944  0.71322  0.49605  1.0000
  H   H136      1.0  0.26394  0.67337  0.48418  1.0000
  H   H137      1.0  0.29861  0.75053  0.20568  1.0000
  H   H138      1.0  0.33880  0.75728  0.19234  1.0000
  H   H139      1.0  0.24110  0.74255  0.23790  1.0000
  H   H140      1.0  0.21886  0.76364  0.24850  1.0000
  H   H141      1.0  0.25423  0.79501  0.49600  1.0000
  H   H142      1.0  0.27557  0.77306  0.48679  1.0000
  H   H143      1.0  0.30604  0.75654  0.49040  1.0000
  H   H144      1.0  0.34612  0.76291  0.47862  1.0000
  N   N34       1.0  0.75187  0.48135  0.35818  1.0000
  C   C211      1.0  0.72599  0.46713  0.35843  1.0000
  C   C212      1.0  0.76507  0.50728  0.36195  1.0000
  C   C213      1.0  0.76357  0.46731  0.34900  1.0000
  C   C214      1.0  0.76423  0.45769  0.26309  1.0000
  C   C215      1.0  0.76767  0.43755  0.25584  1.0000
  C   C216      1.0  0.77034  0.42605  0.33421  1.0000
  C   C217      1.0  0.77140  0.43689  0.41970  1.0000
  C   C218      1.0  0.76788  0.45700  0.42698  1.0000
  C   C219      1.0  0.71311  0.46141  0.27528  1.0000
  C   C220      1.0  0.68948  0.44133  0.26829  1.0000
  C   C221      1.0  0.67827  0.42568  0.34333  1.0000
  C   C222      1.0  0.69038  0.43254  0.42830  1.0000
  C   C223      1.0  0.71384  0.45291  0.43560  1.0000
  C   C224      1.0  0.76318  0.52172  0.29284  1.0000
  C   C225      1.0  0.77581  0.54731  0.29888  1.0000
  C   C226      1.0  0.79080  0.55954  0.37455  1.0000
  C   C227      1.0  0.79351  0.54499  0.44138  1.0000
  C   C228      1.0  0.78069  0.51944  0.43584  1.0000
  H   H145      1.0  0.68128  0.43714  0.20575  1.0000
  H   H146      1.0  0.72166  0.47050  0.21717  1.0000
  H   H147      1.0  0.72295  0.45594  0.49590  1.0000
  H   H148      1.0  0.68309  0.42161  0.48408  1.0000
  H   H149      1.0  0.76024  0.46410  0.20565  1.0000
  H   H150      1.0  0.76699  0.43066  0.19231  1.0000
  H   H151      1.0  0.75227  0.51365  0.23779  1.0000
  H   H152      1.0  0.77336  0.55697  0.24843  1.0000
  H   H153      1.0  0.80472  0.55295  0.49597  1.0000
  H   H154      1.0  0.78275  0.50966  0.48671  1.0000
  H   H155      1.0  0.76627  0.46268  0.49040  1.0000
  H   H156      1.0  0.77264  0.42898  0.47858  1.0000
  N   N35       1.0  0.53332  0.26326  0.35826  1.0000
  C   C229      1.0  0.54755  0.25159  0.35847  1.0000
  C   C230      1.0  0.50739  0.25052  0.36200  1.0000
  C   C231      1.0  0.54736  0.28901  0.34907  1.0000
  C   C232      1.0  0.55692  0.29926  0.26309  1.0000
  C   C233      1.0  0.57706  0.32283  0.25583  1.0000
  C   C234      1.0  0.58857  0.33702  0.33419  1.0000
  C   C235      1.0  0.57774  0.32724  0.41971  1.0000
  C   C236      1.0  0.55766  0.30360  0.42707  1.0000
  C   C237      1.0  0.55324  0.24443  0.27528  1.0000
  C   C238      1.0  0.57331  0.24088  0.26831  1.0000
  C   C239      1.0  0.58897  0.24533  0.34335  1.0000
  C   C240      1.0  0.58211  0.25056  0.42835  1.0000
  C   C241      1.0  0.56174  0.25366  0.43570  1.0000
  C   C242      1.0  0.49295  0.23420  0.29286  1.0000
  C   C243      1.0  0.46736  0.22125  0.29887  1.0000
  C   C244      1.0  0.45513  0.22399  0.37456  1.0000
  C   C245      1.0  0.46967  0.24124  0.44143  1.0000
  C   C246      1.0  0.49523  0.25398  0.43591  1.0000
  H   H157      1.0  0.57750  0.23687  0.20577  1.0000
  H   H158      1.0  0.54414  0.24390  0.21719  1.0000
  H   H159      1.0  0.55871  0.25974  0.49600  1.0000
  H   H160      1.0  0.59305  0.25421  0.48412  1.0000
  H   H161      1.0  0.55049  0.28885  0.20567  1.0000
  H   H162      1.0  0.58391  0.32907  0.19227  1.0000
  H   H163      1.0  0.50102  0.23137  0.23779  1.0000
  H   H164      1.0  0.45770  0.20914  0.24842  1.0000
  H   H165      1.0  0.46171  0.24447  0.49605  1.0000
  H   H166      1.0  0.50501  0.26581  0.48681  1.0000
  H   H167      1.0  0.55199  0.29630  0.49049  1.0000
  H   H168      1.0  0.58566  0.33638  0.47860  1.0000
  N   N36       1.0  0.75137  0.26277  0.35820  1.0000
  C   C247      1.0  0.76304  0.28865  0.35864  1.0000
  C   C248      1.0  0.76410  0.24957  0.36196  1.0000
  C   C249      1.0  0.72562  0.25106  0.34893  1.0000
  C   C250      1.0  0.71535  0.25035  0.26299  1.0000
  C   C251      1.0  0.69178  0.24693  0.25580  1.0000
  C   C252      1.0  0.67762  0.24429  0.33421  1.0000
  C   C253      1.0  0.68741  0.24322  0.41971  1.0000
  C   C254      1.0  0.71105  0.24680  0.42700  1.0000
  C   C255      1.0  0.77015  0.30149  0.27539  1.0000
  C   C256      1.0  0.77371  0.32512  0.26838  1.0000
  C   C257      1.0  0.76928  0.33633  0.34343  1.0000
  C   C258      1.0  0.76410  0.32427  0.42847  1.0000
  C   C259      1.0  0.76103  0.30082  0.43587  1.0000
  C   C260      1.0  0.78046  0.25148  0.29288  1.0000
  C   C261      1.0  0.79341  0.23884  0.29888  1.0000
  C   C262      1.0  0.79065  0.22385  0.37453  1.0000
  C   C263      1.0  0.77338  0.22112  0.44135  1.0000
  C   C264      1.0  0.76063  0.23394  0.43581  1.0000
  H   H169      1.0  0.77762  0.33327  0.20575  1.0000
  H   H170      1.0  0.77061  0.29290  0.21729  1.0000
  H   H171      1.0  0.75495  0.29170  0.49613  1.0000
  H   H172      1.0  0.76047  0.33157  0.48425  1.0000
  H   H173      1.0  0.72574  0.25431  0.20554  1.0000
  H   H174      1.0  0.68553  0.24754  0.19226  1.0000
  H   H175      1.0  0.78329  0.26238  0.23783  1.0000
  H   H176      1.0  0.80553  0.24130  0.24847  1.0000
  H   H177      1.0  0.77014  0.20992  0.49594  1.0000
  H   H178      1.0  0.74879  0.23186  0.48668  1.0000
  H   H179      1.0  0.71837  0.24844  0.49040  1.0000
  H   H180      1.0  0.67829  0.24206  0.47862  1.0000
  C   C265      1.0  0.19523  0.36773  0.38288  1.0000
  C   C266      1.0  0.20821  0.38088  0.46102  1.0000
  C   C267      1.0  0.22176  0.40661  0.46228  1.0000
  C   C268      1.0  0.22162  0.41940  0.38274  1.0000
  N   N37       1.0  0.23514  0.41779  0.53772  1.0000
  H   H181      1.0  0.23547  0.40849  0.58973  1.0000
  H   H182      1.0  0.24673  0.43504  0.53848  1.0000
  H   H183      1.0  0.20890  0.37172  0.51699  1.0000
  C   C269      1.0  0.64692  0.82024  0.38291  1.0000
  C   C270      1.0  0.63377  0.82015  0.46093  1.0000
  C   C271      1.0  0.60804  0.80796  0.46215  1.0000
  C   C272      1.0  0.59526  0.79495  0.38276  1.0000
  N   N38       1.0  0.59686  0.81024  0.53744  1.0000
  H   H184      1.0  0.60613  0.81975  0.58971  1.0000
  H   H185      1.0  0.57957  0.80439  0.53860  1.0000
  H   H186      1.0  0.64292  0.83007  0.51676  1.0000
  C   C273      1.0  0.19441  0.81942  0.38291  1.0000
  C   C274      1.0  0.19458  0.80644  0.46104  1.0000
  C   C275      1.0  0.20677  0.79289  0.46229  1.0000
  C   C276      1.0  0.21971  0.79305  0.38279  1.0000
  N   N39       1.0  0.20457  0.77952  0.53775  1.0000
  H   H187      1.0  0.19494  0.77918  0.58976  1.0000
  H   H188      1.0  0.21024  0.76793  0.53852  1.0000
  H   H189      1.0  0.18474  0.80575  0.51701  1.0000
  C   C277      1.0  0.82915  0.63719  0.38286  1.0000
  C   C278      1.0  0.81618  0.62405  0.46102  1.0000
  C   C279      1.0  0.80263  0.59832  0.46229  1.0000
  C   C280      1.0  0.80277  0.58553  0.38276  1.0000
  N   N40       1.0  0.78926  0.58714  0.53776  1.0000
  H   H190      1.0  0.78893  0.59644  0.58978  1.0000
  H   H191      1.0  0.77767  0.56989  0.53853  1.0000
  H   H192      1.0  0.81550  0.63320  0.51699  1.0000
  C   C281      1.0  0.37748  0.18470  0.38286  1.0000
  C   C282      1.0  0.39062  0.18485  0.46101  1.0000
  C   C283      1.0  0.41635  0.19704  0.46228  1.0000
  C   C284      1.0  0.42914  0.20998  0.38276  1.0000
  N   N41       1.0  0.42753  0.19483  0.53772  1.0000
  H   H193      1.0  0.41823  0.18520  0.58971  1.0000
  H   H194      1.0  0.44477  0.20048  0.53848  1.0000
  H   H195      1.0  0.38146  0.17501  0.51696  1.0000
  C   C285      1.0  0.82998  0.18553  0.38292  1.0000
  C   C286      1.0  0.82987  0.19858  0.46095  1.0000
  C   C287      1.0  0.81767  0.21212  0.46217  1.0000
  C   C288      1.0  0.80467  0.21189  0.38276  1.0000
  N   N42       1.0  0.81994  0.22557  0.53746  1.0000
  H   H196      1.0  0.82945  0.22581  0.58974  1.0000
  H   H197      1.0  0.81408  0.23700  0.53862  1.0000
  H   H198      1.0  0.83978  0.19934  0.51679  1.0000
  N   N43       1.0  0.20685  0.20916  0.40510  1.0000
  N   N44       1.0  0.21895  0.19745  0.40490  1.0000
  N   N45       1.0  0.80549  0.99042  0.40507  1.0000
  N   N46       1.0  0.81721  0.01424  0.40486  1.0000
  N   N47       1.0  0.02424  0.80781  0.40507  1.0000
  N   N48       1.0  0.00042  0.79571  0.40486  1.0000
  N   N49       1.0  0.81745  0.79568  0.40488  1.0000
  N   N50       1.0  0.80537  0.80741  0.40465  1.0000
  N   N51       1.0  0.21892  0.01452  0.40505  1.0000
  N   N52       1.0  0.20720  0.99070  0.40484  1.0000
  N   N53       1.0  0.00014  0.19710  0.40514  1.0000
  N   N54       1.0  0.02396  0.20920  0.40494  1.0000
  N   N55       1.0  0.24346  0.62851  0.39456  1.0000
  N   N56       1.0  0.24287  0.60766  0.39293  1.0000
  N   N57       1.0  0.38616  0.60764  0.39449  1.0000
  N   N58       1.0  0.40701  0.62790  0.39287  1.0000
  N   N59       1.0  0.40698  0.77120  0.39453  1.0000
  N   N60       1.0  0.38672  0.77178  0.39295  1.0000
  N   N61       1.0  0.78094  0.37641  0.39452  1.0000
  N   N62       1.0  0.78153  0.39726  0.39293  1.0000
  N   N63       1.0  0.63822  0.39725  0.39454  1.0000
  N   N64       1.0  0.61737  0.37699  0.39295  1.0000
  N   N65       1.0  0.61737  0.23365  0.39444  1.0000
  N   N66       1.0  0.63763  0.23307  0.39287  1.0000
