data_image0
_chemical_formula_structural       C4HCO2HC3NH2CNHOHC2HCO2HCNHC5H2C6H2C4HC3NHCOC2HC2HOC2HCOCH2CHCHOHC4HCNCO2HC4HC3NHCO2HC5NHCOHC4HC3NHCO2HC4HC3NHCO2HC4HC3NHCO2HOHCNC2H2CO2HCNC2H2CO2HCNC2H2CO2HCNC2H2CO2HCNC2H2CO2HC3NHC4HC3NHCO2HC4HC3NHCO2HC4HCO2C4HC3NHCO2HC4HC3NHCO2HC6H3C6H3C6H3C6H3C6H3C6H3C6H3C6H3C6H3C6H3CNCHCO2HCNC2H2CO2HNC2HCO2HCNC2H2CO2HCNC2H2CO2HCNC2H2CO2HC4HC3NHCO2HC4HC3NHCO2HC4HC3NHCO2HC4HC3NHCO2HC4HC3NHCO2HC2HCOCNC2H2CO2HCNC2H2CO2HCNHCNC2H2CO2HCNC2H2CO2H
_chemical_formula_sum              "C288 H144 O72 N36"
_cell_length_a       59.8247
_cell_length_b       59.8248
_cell_length_c       14.9026
_cell_angle_alpha    90
_cell_angle_beta     90
_cell_angle_gamma    120

_space_group_name_H-M_alt    "P 1"
_space_group_IT_number       1

loop_
  _space_group_symop_operation_xyz
  'x, y, z'

loop_
  _atom_site_type_symbol
  _atom_site_label
  _atom_site_symmetry_multiplicity
  _atom_site_fract_x
  _atom_site_fract_y
  _atom_site_fract_z
  _atom_site_occupancy
  C   C1        1.0  0.08020  0.42338  0.31796  1.0000
  C   C2        1.0  0.02543  0.39358  0.32651  1.0000
  C   C3        1.0  0.03779  0.40297  0.24200  1.0000
  C   C4        1.0  0.06511  0.41824  0.23962  1.0000
  H   H1        1.0  0.07414  0.42706  0.18079  1.0000
  C   C5        1.0  0.02404  0.40031  0.16425  1.0000
  O   O1        1.0  0.02780  0.39004  0.09930  1.0000
  O   O2        1.0  0.01667  0.41604  0.15210  1.0000
  H   H2        1.0  0.00924  0.41709  0.10206  1.0000
  C   C6        1.0  0.01999  0.64148  0.34084  1.0000
  C   C7        1.0  0.07459  0.66300  0.34640  1.0000
  C   C8        1.0  0.06241  0.67023  0.28078  1.0000
  N   N1        1.0  0.03627  0.65910  0.27980  1.0000
  H   H3        1.0  0.07275  0.68228  0.22930  1.0000
  H   H4        1.0  0.00885  0.60599  0.10210  1.0000
  C   C9        1.0  0.06705  0.41250  0.39891  1.0000
  N   N2        1.0  0.04087  0.39881  0.39989  1.0000
  H   H5        1.0  0.07670  0.41680  0.45874  1.0000
  O   O3        1.0  0.00836  0.43075  0.45775  1.0000
  H   H6        1.0  0.00988  0.43734  0.40331  1.0000
  C   C10       1.0  0.03134  0.63451  0.41163  1.0000
  C   C11       1.0  0.05849  0.64532  0.41267  1.0000
  H   H7        1.0  0.06666  0.63938  0.46077  1.0000
  C   C12       1.0  0.01663  0.61517  0.47325  1.0000
  O   O4        1.0  0.01982  0.62115  0.55262  1.0000
  O   O5        1.0  0.00969  0.59233  0.45763  1.0000
  H   H8        1.0  0.00816  0.58575  0.40319  1.0000
  C   C13       1.0  0.14524  0.62611  0.26451  1.0000
  N   N3        1.0  0.14678  0.60430  0.26958  1.0000
  H   H9        1.0  0.14748  0.63482  0.20351  1.0000
  C   C14       1.0  0.13509  0.49141  0.32564  1.0000
  C   C15       1.0  0.11012  0.46953  0.31995  1.0000
  C   C16       1.0  0.10611  0.44418  0.31997  1.0000
  C   C17       1.0  0.12777  0.44067  0.32580  1.0000
  C   C18       1.0  0.15325  0.46209  0.33070  1.0000
  H   H10       1.0  0.12486  0.42229  0.32771  1.0000
  H   H11       1.0  0.09443  0.47208  0.31566  1.0000
  C   C19       1.0  0.13343  0.65580  0.33624  1.0000
  C   C20       1.0  0.10763  0.65028  0.34116  1.0000
  C   C21       1.0  0.10119  0.67005  0.33971  1.0000
  C   C22       1.0  0.12155  0.69598  0.33218  1.0000
  C   C23       1.0  0.14768  0.70204  0.32860  1.0000
  C   C24       1.0  0.15335  0.68174  0.33009  1.0000
  H   H12       1.0  0.11737  0.71063  0.33273  1.0000
  H   H13       1.0  0.09322  0.63135  0.34491  1.0000
  C   C25       1.0  0.13876  0.63528  0.34152  1.0000
  C   C26       1.0  0.14326  0.59040  0.34596  1.0000
  C   C27       1.0  0.13715  0.59916  0.42636  1.0000
  C   C28       1.0  0.13487  0.62158  0.42246  1.0000
  H   H14       1.0  0.13015  0.62802  0.47927  1.0000
  C   C29       1.0  0.14358  0.56673  0.33804  1.0000
  C   C30       1.0  0.13841  0.51682  0.32906  1.0000
  C   C31       1.0  0.12215  0.52215  0.38261  1.0000
  N   N4        1.0  0.12526  0.54613  0.38448  1.0000
  H   H15       1.0  0.10796  0.50823  0.42163  1.0000
  C   C32       1.0  0.13439  0.58713  0.50834  1.0000
  O   O6        1.0  0.11504  0.58098  0.55350  1.0000
  C   C33       1.0  0.17554  0.45899  0.33694  1.0000
  C   C34       1.0  0.17890  0.44180  0.28119  1.0000
  H   H16       1.0  0.16508  0.43040  0.23568  1.0000
  C   C35       1.0  0.16850  0.72793  0.32821  1.0000
  C   C36       1.0  0.17909  0.74132  0.24723  1.0000
  H   H17       1.0  0.17011  0.73285  0.18797  1.0000
  O   O7        1.0  0.19984  0.78195  0.11410  1.0000
  C   C37       1.0  0.16050  0.56264  0.28210  1.0000
  C   C38       1.0  0.15781  0.53770  0.27954  1.0000
  H   H18       1.0  0.16991  0.53459  0.23942  1.0000
  C   C39       1.0  0.18047  0.58273  0.23481  1.0000
  O   O8        1.0  0.18112  0.58015  0.15362  1.0000
  C   C40       1.0  0.15633  0.48721  0.32980  1.0000
  H   H19       1.0  0.17452  0.50292  0.33341  1.0000
  H   H20       1.0  0.17217  0.68587  0.32868  1.0000
  C   C41       1.0  0.19621  0.47439  0.39566  1.0000
  H   H21       1.0  0.19456  0.48704  0.43782  1.0000
  C   C42       1.0  0.18209  0.73937  0.40792  1.0000
  H   H22       1.0  0.17591  0.73021  0.46839  1.0000
  O   O9        1.0  0.15420  0.58988  0.54448  1.0000
  H   H23       1.0  0.15466  0.58417  0.59895  1.0000
  C   C43       1.0  0.29267  0.45467  0.32820  1.0000
  C   C44       1.0  0.24484  0.45419  0.32845  1.0000
  C   C45       1.0  0.25519  0.45115  0.24601  1.0000
  C   C46       1.0  0.27925  0.45180  0.24723  1.0000
  H   H24       1.0  0.28772  0.45127  0.18799  1.0000
  C   C47       1.0  0.22192  0.45618  0.33687  1.0000
  N   N5        1.0  0.20137  0.44132  0.28278  1.0000
  C   C48       1.0  0.24382  0.45011  0.16413  1.0000
  O   O10       1.0  0.23859  0.43185  0.11423  1.0000
  O   O11       1.0  0.24789  0.47084  0.13181  1.0000
  H   H25       1.0  0.24292  0.47250  0.07738  1.0000
  C   C49       1.0  0.56591  0.85204  0.32815  1.0000
  C   C50       1.0  0.56640  0.80469  0.32841  1.0000
  C   C51       1.0  0.56943  0.81807  0.24596  1.0000
  C   C52       1.0  0.56878  0.84149  0.24719  1.0000
  H   H26       1.0  0.56930  0.85048  0.18793  1.0000
  C   C53       1.0  0.56441  0.77978  0.33684  1.0000
  C   C54       1.0  0.56159  0.73059  0.33688  1.0000
  C   C55       1.0  0.57879  0.75114  0.28116  1.0000
  N   N6        1.0  0.57928  0.77410  0.28275  1.0000
  H   H27       1.0  0.59020  0.74873  0.23564  1.0000
  C   C56       1.0  0.57047  0.80774  0.16411  1.0000
  O   O12       1.0  0.58873  0.82077  0.11419  1.0000
  O   O13       1.0  0.54974  0.79108  0.13179  1.0000
  H   H28       1.0  0.54808  0.78445  0.07736  1.0000
  C   C57       1.0  0.21589  0.77574  0.32842  1.0000
  C   C58       1.0  0.20252  0.76539  0.24598  1.0000
  C   C59       1.0  0.24080  0.79867  0.33684  1.0000
  C   C60       1.0  0.28999  0.84504  0.33688  1.0000
  C   C61       1.0  0.26943  0.84169  0.28115  1.0000
  N   N7        1.0  0.24648  0.81922  0.28274  1.0000
  H   H29       1.0  0.27185  0.85550  0.23562  1.0000
  C   C62       1.0  0.21286  0.77674  0.16410  1.0000
  O   O14       1.0  0.22953  0.77266  0.13188  1.0000
  H   H30       1.0  0.23617  0.77762  0.07747  1.0000
  C   C63       1.0  0.72543  0.56844  0.32816  1.0000
  C   C64       1.0  0.77325  0.56890  0.32841  1.0000
  C   C65       1.0  0.76289  0.57190  0.24595  1.0000
  C   C66       1.0  0.73883  0.57126  0.24718  1.0000
  H   H31       1.0  0.73035  0.57175  0.18793  1.0000
  C   C67       1.0  0.79618  0.56691  0.33686  1.0000
  C   C68       1.0  0.84256  0.56411  0.33696  1.0000
  C   C69       1.0  0.83919  0.58129  0.28117  1.0000
  N   N8        1.0  0.81672  0.58177  0.28273  1.0000
  H   H32       1.0  0.85301  0.59268  0.23562  1.0000
  C   C70       1.0  0.77425  0.57290  0.16409  1.0000
  O   O15       1.0  0.77946  0.59114  0.11407  1.0000
  O   O16       1.0  0.77017  0.55215  0.13188  1.0000
  H   H33       1.0  0.77513  0.55047  0.07748  1.0000
  C   C71       1.0  0.45215  0.17103  0.32815  1.0000
  C   C72       1.0  0.45170  0.21841  0.32841  1.0000
  C   C73       1.0  0.44869  0.20504  0.24594  1.0000
  C   C74       1.0  0.44933  0.18161  0.24717  1.0000
  H   H34       1.0  0.44882  0.17263  0.18792  1.0000
  C   C75       1.0  0.45368  0.24331  0.33684  1.0000
  C   C76       1.0  0.45648  0.29250  0.33692  1.0000
  C   C77       1.0  0.43930  0.27195  0.28115  1.0000
  N   N9        1.0  0.43882  0.24900  0.28272  1.0000
  H   H35       1.0  0.42790  0.27437  0.23560  1.0000
  C   C78       1.0  0.44767  0.21538  0.16408  1.0000
  O   O17       1.0  0.42943  0.20236  0.11409  1.0000
  O   O18       1.0  0.46842  0.23205  0.13185  1.0000
  H   H36       1.0  0.47009  0.23869  0.07743  1.0000
  C   C79       1.0  0.84956  0.29516  0.32811  1.0000
  C   C80       1.0  0.80219  0.24734  0.32837  1.0000
  C   C81       1.0  0.81555  0.25770  0.24592  1.0000
  C   C82       1.0  0.83898  0.28176  0.24714  1.0000
  H   H37       1.0  0.84796  0.29024  0.18789  1.0000
  C   C83       1.0  0.77728  0.22442  0.33681  1.0000
  C   C84       1.0  0.72809  0.17804  0.33689  1.0000
  C   C85       1.0  0.74864  0.18140  0.28113  1.0000
  N   N10       1.0  0.77159  0.20387  0.28271  1.0000
  H   H38       1.0  0.74622  0.16758  0.23560  1.0000
  C   C86       1.0  0.80520  0.24634  0.16405  1.0000
  O   O19       1.0  0.81822  0.24112  0.11404  1.0000
  O   O20       1.0  0.78853  0.25042  0.13184  1.0000
  H   H39       1.0  0.78189  0.24546  0.07742  1.0000
  O   O21       1.0  0.20156  0.59701  0.27036  1.0000
  H   H40       1.0  0.20410  0.59937  0.32902  1.0000
  C   C87       1.0  0.39449  0.53317  0.26453  1.0000
  N   N11       1.0  0.41630  0.55652  0.26960  1.0000
  C   C88       1.0  0.45796  0.61189  0.28212  1.0000
  C   C89       1.0  0.48289  0.63414  0.27954  1.0000
  H   H41       1.0  0.48600  0.64936  0.23943  1.0000
  H   H42       1.0  0.38577  0.52671  0.20354  1.0000
  C   C90       1.0  0.43786  0.61177  0.23483  1.0000
  O   O22       1.0  0.44044  0.61499  0.15365  1.0000
  O   O23       1.0  0.42358  0.61858  0.27040  1.0000
  H   H43       1.0  0.42123  0.61876  0.32906  1.0000
  C   C91       1.0  0.48740  0.87536  0.26453  1.0000
  N   N12       1.0  0.46405  0.87382  0.26959  1.0000
  C   C92       1.0  0.40868  0.86011  0.28211  1.0000
  C   C93       1.0  0.38643  0.86280  0.27954  1.0000
  H   H44       1.0  0.37122  0.85069  0.23942  1.0000
  H   H45       1.0  0.49386  0.87310  0.20353  1.0000
  C   C94       1.0  0.40880  0.84013  0.23482  1.0000
  O   O24       1.0  0.40558  0.83949  0.15363  1.0000
  O   O25       1.0  0.40199  0.81905  0.27038  1.0000
  H   H46       1.0  0.40181  0.81651  0.32904  1.0000
  C   C95       1.0  0.87284  0.39698  0.26452  1.0000
  N   N13       1.0  0.87130  0.41879  0.26958  1.0000
  C   C96       1.0  0.85759  0.46045  0.28211  1.0000
  C   C97       1.0  0.86027  0.48539  0.27954  1.0000
  H   H47       1.0  0.84817  0.48850  0.23942  1.0000
  H   H48       1.0  0.87059  0.38827  0.20352  1.0000
  C   C98       1.0  0.83761  0.44036  0.23483  1.0000
  O   O26       1.0  0.83697  0.44293  0.15364  1.0000
  O   O27       1.0  0.81652  0.42607  0.27040  1.0000
  H   H49       1.0  0.81399  0.42372  0.32906  1.0000
  C   C99       1.0  0.62360  0.48991  0.26451  1.0000
  N   N14       1.0  0.60179  0.46656  0.26957  1.0000
  C   C100      1.0  0.56013  0.41118  0.28208  1.0000
  C   C101      1.0  0.53520  0.38894  0.27950  1.0000
  H   H50       1.0  0.53209  0.37372  0.23939  1.0000
  H   H51       1.0  0.63232  0.49638  0.20352  1.0000
  C   C102      1.0  0.58023  0.41130  0.23479  1.0000
  O   O28       1.0  0.57765  0.40808  0.15360  1.0000
  O   O29       1.0  0.59451  0.40449  0.27036  1.0000
  H   H52       1.0  0.59687  0.40432  0.32902  1.0000
  C   C103      1.0  0.53068  0.14775  0.26453  1.0000
  N   N15       1.0  0.55403  0.14930  0.26959  1.0000
  C   C104      1.0  0.60940  0.16300  0.28210  1.0000
  C   C105      1.0  0.63165  0.16031  0.27952  1.0000
  H   H53       1.0  0.64686  0.17242  0.23942  1.0000
  H   H54       1.0  0.52422  0.15002  0.20355  1.0000
  C   C106      1.0  0.60928  0.18298  0.23485  1.0000
  O   O30       1.0  0.61250  0.18363  0.15366  1.0000
  O   O31       1.0  0.61609  0.20407  0.27044  1.0000
  H   H55       1.0  0.61628  0.20660  0.32910  1.0000
  C   C107      1.0  0.99808  0.38162  0.34087  1.0000
  C   C108      1.0  0.94348  0.36007  0.34650  1.0000
  C   C109      1.0  0.95568  0.35287  0.28081  1.0000
  N   N16       1.0  0.98181  0.36401  0.27981  1.0000
  H   H56       1.0  0.94533  0.34082  0.22930  1.0000
  C   C110      1.0  0.59723  0.67088  0.31795  1.0000
  C   C111      1.0  0.62702  0.64590  0.32651  1.0000
  C   C112      1.0  0.61763  0.64888  0.24199  1.0000
  C   C113      1.0  0.60237  0.66093  0.23960  1.0000
  H   H57       1.0  0.59355  0.66115  0.18077  1.0000
  C   C114      1.0  0.63897  0.63051  0.34087  1.0000
  C   C115      1.0  0.66052  0.59745  0.34650  1.0000
  C   C116      1.0  0.66773  0.61685  0.28082  1.0000
  N   N17       1.0  0.65659  0.63185  0.27982  1.0000
  H   H58       1.0  0.67978  0.61855  0.22932  1.0000
  C   C117      1.0  0.62031  0.63780  0.16423  1.0000
  O   O32       1.0  0.63058  0.65183  0.09931  1.0000
  O   O33       1.0  0.60458  0.61470  0.15205  1.0000
  H   H59       1.0  0.60353  0.60622  0.10201  1.0000
  C   C118      1.0  0.34969  0.94039  0.31795  1.0000
  C   C119      1.0  0.37467  0.99516  0.32652  1.0000
  C   C120      1.0  0.37170  0.98280  0.24200  1.0000
  C   C121      1.0  0.35965  0.95548  0.23961  1.0000
  H   H60       1.0  0.35944  0.94645  0.18079  1.0000
  C   C122      1.0  0.39005  0.02251  0.34088  1.0000
  C   C123      1.0  0.42311  0.07711  0.34652  1.0000
  C   C124      1.0  0.40372  0.06492  0.28082  1.0000
  N   N18       1.0  0.38872  0.03878  0.27981  1.0000
  H   H61       1.0  0.40202  0.07526  0.22930  1.0000
  C   C125      1.0  0.38279  0.99655  0.16425  1.0000
  O   O34       1.0  0.36876  0.99279  0.09930  1.0000
  O   O35       1.0  0.40588  0.00392  0.15210  1.0000
  H   H62       1.0  0.41437  0.01136  0.10207  1.0000
  C   C126      1.0  0.93790  0.59971  0.31797  1.0000
  C   C127      1.0  0.99265  0.62953  0.32649  1.0000
  C   C128      1.0  0.98029  0.62011  0.24198  1.0000
  C   C129      1.0  0.95297  0.60484  0.23959  1.0000
  H   H63       1.0  0.94394  0.59600  0.18079  1.0000
  C   C130      1.0  0.99404  0.62277  0.16423  1.0000
  O   O36       1.0  0.99028  0.63303  0.09927  1.0000
  O   O37       1.0  0.00142  0.60705  0.15212  1.0000
  C   C131      1.0  0.42087  0.35223  0.31791  1.0000
  C   C132      1.0  0.39105  0.37716  0.32645  1.0000
  C   C133      1.0  0.40047  0.37423  0.24195  1.0000
  C   C134      1.0  0.41575  0.36219  0.23954  1.0000
  H   H64       1.0  0.42459  0.36200  0.18074  1.0000
  C   C135      1.0  0.37908  0.39254  0.34083  1.0000
  C   C136      1.0  0.35754  0.42560  0.34647  1.0000
  C   C137      1.0  0.35035  0.40622  0.28074  1.0000
  N   N19       1.0  0.36148  0.39122  0.27974  1.0000
  H   H65       1.0  0.33831  0.40453  0.22921  1.0000
  C   C138      1.0  0.39781  0.38533  0.16421  1.0000
  O   O38       1.0  0.38756  0.37131  0.09923  1.0000
  O   O39       1.0  0.41354  0.40843  0.15213  1.0000
  H   H66       1.0  0.41460  0.41693  0.10212  1.0000
  C   C139      1.0  0.66838  0.08271  0.31791  1.0000
  C   C140      1.0  0.64338  0.02792  0.32647  1.0000
  C   C141      1.0  0.64634  0.04028  0.24197  1.0000
  C   C142      1.0  0.65839  0.06760  0.23960  1.0000
  H   H67       1.0  0.65859  0.07662  0.18077  1.0000
  C   C143      1.0  0.62800  0.00057  0.34083  1.0000
  C   C144      1.0  0.59495  0.94597  0.34646  1.0000
  C   C145      1.0  0.61434  0.95817  0.28074  1.0000
  N   N20       1.0  0.62933  0.98430  0.27974  1.0000
  H   H68       1.0  0.61603  0.94782  0.22921  1.0000
  C   C146      1.0  0.63524  0.02653  0.16423  1.0000
  O   O40       1.0  0.64925  0.03029  0.09925  1.0000
  O   O41       1.0  0.61213  0.01916  0.15214  1.0000
  H   H69       1.0  0.60364  0.01173  0.10212  1.0000
  C   C147      1.0  0.52919  0.65772  0.32561  1.0000
  C   C148      1.0  0.55107  0.65465  0.31994  1.0000
  C   C149      1.0  0.57642  0.67598  0.31995  1.0000
  C   C150      1.0  0.57993  0.70115  0.32572  1.0000
  C   C151      1.0  0.55851  0.70521  0.33066  1.0000
  C   C152      1.0  0.53339  0.68317  0.32977  1.0000
  H   H70       1.0  0.59830  0.71662  0.32768  1.0000
  H   H71       1.0  0.51767  0.68563  0.33339  1.0000
  H   H72       1.0  0.54853  0.63641  0.31566  1.0000
  C   C153      1.0  0.36285  0.88552  0.32563  1.0000
  C   C154      1.0  0.36593  0.91047  0.31995  1.0000
  C   C155      1.0  0.34459  0.91449  0.31996  1.0000
  C   C156      1.0  0.31943  0.89282  0.32573  1.0000
  C   C157      1.0  0.31536  0.86734  0.33067  1.0000
  C   C158      1.0  0.33741  0.86427  0.32978  1.0000
  H   H73       1.0  0.30395  0.89572  0.32768  1.0000
  H   H74       1.0  0.33494  0.84608  0.33341  1.0000
  H   H75       1.0  0.38417  0.92617  0.31568  1.0000
  C   C159      1.0  0.88300  0.53168  0.32560  1.0000
  C   C160      1.0  0.90796  0.55356  0.31990  1.0000
  C   C161      1.0  0.91199  0.57891  0.31991  1.0000
  C   C162      1.0  0.89033  0.58242  0.32576  1.0000
  C   C163      1.0  0.86484  0.56101  0.33070  1.0000
  C   C164      1.0  0.86176  0.53589  0.32980  1.0000
  H   H76       1.0  0.89324  0.60080  0.32773  1.0000
  H   H77       1.0  0.84357  0.52017  0.33343  1.0000
  H   H78       1.0  0.92366  0.55101  0.31562  1.0000
  C   C165      1.0  0.48890  0.36537  0.32557  1.0000
  C   C166      1.0  0.46702  0.36845  0.31986  1.0000
  C   C167      1.0  0.44167  0.34712  0.31983  1.0000
  C   C168      1.0  0.43816  0.32195  0.32572  1.0000
  C   C169      1.0  0.45957  0.31788  0.33067  1.0000
  C   C170      1.0  0.48470  0.33992  0.32976  1.0000
  H   H79       1.0  0.41978  0.30648  0.32768  1.0000
  H   H80       1.0  0.50041  0.33745  0.33339  1.0000
  H   H81       1.0  0.46957  0.38669  0.31557  1.0000
  C   C171      1.0  0.65522  0.13758  0.32555  1.0000
  C   C172      1.0  0.65214  0.11262  0.31986  1.0000
  C   C173      1.0  0.67348  0.10861  0.31983  1.0000
  C   C174      1.0  0.69864  0.13027  0.32574  1.0000
  C   C175      1.0  0.70271  0.15575  0.33065  1.0000
  C   C176      1.0  0.68066  0.15883  0.32976  1.0000
  H   H82       1.0  0.71411  0.12737  0.32766  1.0000
  H   H83       1.0  0.68314  0.17702  0.33338  1.0000
  H   H84       1.0  0.63391  0.09693  0.31556  1.0000
  C   C177      1.0  0.48917  0.13593  0.33628  1.0000
  C   C178      1.0  0.46888  0.11013  0.34122  1.0000
  C   C179      1.0  0.44267  0.10370  0.33979  1.0000
  C   C180      1.0  0.43711  0.12407  0.33227  1.0000
  C   C181      1.0  0.45720  0.15020  0.32857  1.0000
  C   C182      1.0  0.48316  0.15585  0.33006  1.0000
  H   H85       1.0  0.41829  0.11991  0.33276  1.0000
  H   H86       1.0  0.49786  0.17467  0.32861  1.0000
  H   H87       1.0  0.47339  0.09571  0.34499  1.0000
  C   C183      1.0  0.65330  0.53140  0.33628  1.0000
  C   C184      1.0  0.64779  0.55168  0.34120  1.0000
  C   C185      1.0  0.66756  0.57790  0.33978  1.0000
  C   C186      1.0  0.69350  0.58347  0.33226  1.0000
  C   C187      1.0  0.69954  0.56339  0.32859  1.0000
  C   C188      1.0  0.67924  0.53742  0.33011  1.0000
  H   H88       1.0  0.70814  0.60229  0.33275  1.0000
  H   H89       1.0  0.68337  0.52273  0.32863  1.0000
  H   H90       1.0  0.62886  0.54717  0.34497  1.0000
  C   C189      1.0  0.88465  0.36729  0.33626  1.0000
  C   C190      1.0  0.91044  0.37280  0.34119  1.0000
  C   C191      1.0  0.91688  0.35303  0.33977  1.0000
  C   C192      1.0  0.89652  0.32710  0.33224  1.0000
  C   C193      1.0  0.87039  0.32105  0.32852  1.0000
  C   C194      1.0  0.86473  0.34135  0.33001  1.0000
  H   H91       1.0  0.90069  0.31244  0.33274  1.0000
  H   H92       1.0  0.84591  0.33722  0.32859  1.0000
  H   H93       1.0  0.92486  0.39173  0.34499  1.0000
  C   C195      1.0  0.52889  0.88715  0.33626  1.0000
  C   C196      1.0  0.54918  0.91294  0.34117  1.0000
  C   C197      1.0  0.57539  0.91937  0.33973  1.0000
  C   C198      1.0  0.58096  0.89901  0.33212  1.0000
  C   C199      1.0  0.56087  0.87288  0.32853  1.0000
  C   C200      1.0  0.53491  0.86723  0.33004  1.0000
  H   H94       1.0  0.59977  0.90317  0.33275  1.0000
  H   H95       1.0  0.52021  0.84840  0.32866  1.0000
  H   H96       1.0  0.54468  0.92736  0.34499  1.0000
  C   C201      1.0  0.36480  0.49167  0.33624  1.0000
  C   C202      1.0  0.37030  0.47137  0.34119  1.0000
  C   C203      1.0  0.35051  0.44517  0.33975  1.0000
  C   C204      1.0  0.32458  0.43961  0.33214  1.0000
  C   C205      1.0  0.31855  0.45970  0.32859  1.0000
  C   C206      1.0  0.33887  0.48566  0.33005  1.0000
  H   H97       1.0  0.30993  0.42080  0.33277  1.0000
  H   H98       1.0  0.33475  0.50036  0.32868  1.0000
  H   H99       1.0  0.38922  0.47587  0.34497  1.0000
  C   C207      1.0  0.28124  0.45680  0.40794  1.0000
  N   N21       1.0  0.25850  0.45662  0.40457  1.0000
  C   C208      1.0  0.21930  0.47322  0.39720  1.0000
  H   H100      1.0  0.29041  0.45980  0.46840  1.0000
  C   C209      1.0  0.23948  0.49056  0.45147  1.0000
  O   O42       1.0  0.23574  0.48856  0.53248  1.0000
  O   O43       1.0  0.25503  0.51251  0.42493  1.0000
  H   H101      1.0  0.25841  0.51699  0.36771  1.0000
  C   C210      1.0  0.56378  0.83847  0.40790  1.0000
  N   N22       1.0  0.56397  0.81593  0.40453  1.0000
  C   C211      1.0  0.54737  0.76012  0.39717  1.0000
  C   C212      1.0  0.54620  0.73586  0.39562  1.0000
  H   H102      1.0  0.53356  0.72156  0.43778  1.0000
  H   H103      1.0  0.56079  0.84465  0.46836  1.0000
  C   C213      1.0  0.53004  0.76296  0.45146  1.0000
  O   O44       1.0  0.53204  0.76122  0.53247  1.0000
  O   O45       1.0  0.50808  0.75656  0.42493  1.0000
  H   H104      1.0  0.50360  0.75546  0.36771  1.0000
  N   N23       1.0  0.20464  0.76210  0.40455  1.0000
  C   C214      1.0  0.26046  0.80130  0.39719  1.0000
  C   C215      1.0  0.28471  0.82438  0.39564  1.0000
  H   H105      1.0  0.29901  0.82604  0.43782  1.0000
  C   C216      1.0  0.25762  0.78112  0.45149  1.0000
  O   O46       1.0  0.25936  0.78487  0.53250  1.0000
  O   O47       1.0  0.26401  0.76556  0.42498  1.0000
  H   H106      1.0  0.26512  0.76218  0.36776  1.0000
  C   C217      1.0  0.73688  0.56633  0.40791  1.0000
  N   N24       1.0  0.75960  0.56650  0.40455  1.0000
  C   C218      1.0  0.79880  0.54988  0.39722  1.0000
  C   C219      1.0  0.82189  0.54871  0.39569  1.0000
  H   H107      1.0  0.82355  0.53607  0.43787  1.0000
  H   H108      1.0  0.72772  0.56336  0.46837  1.0000
  C   C220      1.0  0.77863  0.53255  0.45151  1.0000
  O   O48       1.0  0.78237  0.53455  0.53253  1.0000
  O   O49       1.0  0.76306  0.51060  0.42499  1.0000
  H   H109      1.0  0.75968  0.50611  0.36778  1.0000
  C   C221      1.0  0.45428  0.18461  0.40789  1.0000
  N   N25       1.0  0.45410  0.20716  0.40453  1.0000
  C   C222      1.0  0.47071  0.26297  0.39720  1.0000
  C   C223      1.0  0.47187  0.28722  0.39566  1.0000
  H   H110      1.0  0.48451  0.30152  0.43784  1.0000
  H   H111      1.0  0.45726  0.17842  0.46836  1.0000
  C   C224      1.0  0.48804  0.26013  0.45150  1.0000
  O   O50       1.0  0.48603  0.26187  0.53251  1.0000
  O   O51       1.0  0.50999  0.26653  0.42499  1.0000
  H   H112      1.0  0.51449  0.26764  0.36778  1.0000
  C   C225      1.0  0.83599  0.28372  0.40786  1.0000
  N   N26       1.0  0.81344  0.26099  0.40450  1.0000
  C   C226      1.0  0.75762  0.22179  0.39716  1.0000
  C   C227      1.0  0.73337  0.19871  0.39562  1.0000
  H   H113      1.0  0.71906  0.19706  0.43780  1.0000
  H   H114      1.0  0.84218  0.29288  0.46832  1.0000
  C   C228      1.0  0.76046  0.24197  0.45145  1.0000
  O   O52       1.0  0.75872  0.23823  0.53245  1.0000
  O   O53       1.0  0.75408  0.25754  0.42491  1.0000
  H   H115      1.0  0.75297  0.26092  0.36770  1.0000
  C   C229      1.0  0.38533  0.51750  0.34153  1.0000
  C   C230      1.0  0.43021  0.56689  0.34597  1.0000
  C   C231      1.0  0.42146  0.55202  0.42635  1.0000
  C   C232      1.0  0.39904  0.52730  0.42246  1.0000
  H   H116      1.0  0.39260  0.51614  0.47925  1.0000
  C   C233      1.0  0.45388  0.59088  0.33804  1.0000
  C   C234      1.0  0.50379  0.63563  0.32905  1.0000
  C   C235      1.0  0.49846  0.61404  0.38260  1.0000
  N   N27       1.0  0.47448  0.59316  0.38448  1.0000
  H   H117      1.0  0.51238  0.61378  0.42161  1.0000
  C   C236      1.0  0.43350  0.56128  0.50832  1.0000
  O   O54       1.0  0.43966  0.54807  0.55345  1.0000
  O   O55       1.0  0.43074  0.57833  0.54452  1.0000
  H   H118      1.0  0.43645  0.58449  0.59899  1.0000
  C   C237      1.0  0.50305  0.88183  0.34153  1.0000
  C   C238      1.0  0.45368  0.87735  0.34597  1.0000
  C   C239      1.0  0.46855  0.88347  0.42635  1.0000
  C   C240      1.0  0.49326  0.88575  0.42246  1.0000
  H   H119      1.0  0.50442  0.89047  0.47926  1.0000
  C   C241      1.0  0.42969  0.87703  0.33804  1.0000
  C   C242      1.0  0.38494  0.88220  0.32906  1.0000
  C   C243      1.0  0.40653  0.89846  0.38260  1.0000
  N   N28       1.0  0.42741  0.89536  0.38448  1.0000
  H   H120      1.0  0.40680  0.91265  0.42163  1.0000
  C   C244      1.0  0.45928  0.88624  0.50832  1.0000
  O   O56       1.0  0.47250  0.90561  0.55346  1.0000
  O   O57       1.0  0.44223  0.86644  0.54452  1.0000
  H   H121      1.0  0.43607  0.86599  0.59898  1.0000
  C   C245      1.0  0.87932  0.38780  0.34153  1.0000
  C   C246      1.0  0.87483  0.43269  0.34596  1.0000
  C   C247      1.0  0.88095  0.42394  0.42635  1.0000
  C   C248      1.0  0.88323  0.40152  0.42246  1.0000
  H   H122      1.0  0.88796  0.39508  0.47926  1.0000
  C   C249      1.0  0.87451  0.45637  0.33803  1.0000
  C   C250      1.0  0.87968  0.50628  0.32904  1.0000
  C   C251      1.0  0.89594  0.50095  0.38259  1.0000
  N   N29       1.0  0.89284  0.47696  0.38446  1.0000
  H   H123      1.0  0.91013  0.51487  0.42161  1.0000
  C   C252      1.0  0.88372  0.43598  0.50832  1.0000
  O   O58       1.0  0.90308  0.44213  0.55346  1.0000
  O   O59       1.0  0.86392  0.43323  0.54451  1.0000
  H   H124      1.0  0.86347  0.43894  0.59898  1.0000
  C   C253      1.0  0.63279  0.50556  0.34154  1.0000
  C   C254      1.0  0.58789  0.45618  0.34595  1.0000
  C   C255      1.0  0.59664  0.47104  0.42634  1.0000
  C   C256      1.0  0.61907  0.49575  0.42246  1.0000
  H   H125      1.0  0.62551  0.50691  0.47927  1.0000
  C   C257      1.0  0.56422  0.43219  0.33801  1.0000
  C   C258      1.0  0.51431  0.38745  0.32901  1.0000
  C   C259      1.0  0.51964  0.40904  0.38256  1.0000
  N   N30       1.0  0.54362  0.42992  0.38444  1.0000
  H   H126      1.0  0.50572  0.40931  0.42158  1.0000
  C   C260      1.0  0.58461  0.46177  0.50832  1.0000
  O   O60       1.0  0.57846  0.47498  0.55348  1.0000
  O   O61       1.0  0.58736  0.44472  0.54448  1.0000
  H   H127      1.0  0.58165  0.43855  0.59894  1.0000
  C   C261      1.0  0.51501  0.14124  0.34152  1.0000
  C   C262      1.0  0.56440  0.14575  0.34595  1.0000
  C   C263      1.0  0.54952  0.13961  0.42634  1.0000
  C   C264      1.0  0.52481  0.13733  0.42245  1.0000
  H   H128      1.0  0.51365  0.13259  0.47925  1.0000
  C   C265      1.0  0.58839  0.14607  0.33801  1.0000
  C   C266      1.0  0.63313  0.14090  0.32900  1.0000
  C   C267      1.0  0.61154  0.12463  0.38253  1.0000
  N   N31       1.0  0.59066  0.12774  0.38442  1.0000
  H   H129      1.0  0.61127  0.11044  0.42152  1.0000
  C   C268      1.0  0.55879  0.13684  0.50830  1.0000
  O   O62       1.0  0.54558  0.11747  0.55341  1.0000
  O   O63       1.0  0.57584  0.15664  0.54451  1.0000
  H   H130      1.0  0.58200  0.15708  0.59898  1.0000
  C   C269      1.0  0.98673  0.38858  0.41169  1.0000
  C   C270      1.0  0.95958  0.37775  0.41274  1.0000
  H   H131      1.0  0.95140  0.38368  0.46086  1.0000
  C   C271      1.0  0.00143  0.40791  0.47332  1.0000
  O   O64       1.0  0.99825  0.40192  0.55268  1.0000
  C   C272      1.0  0.60809  0.66859  0.39890  1.0000
  N   N32       1.0  0.62178  0.65610  0.39989  1.0000
  C   C273      1.0  0.63201  0.61220  0.41168  1.0000
  C   C274      1.0  0.64284  0.59587  0.41273  1.0000
  H   H132      1.0  0.63690  0.58176  0.46084  1.0000
  H   H133      1.0  0.60379  0.67395  0.45873  1.0000
  C   C275      1.0  0.61267  0.60756  0.47329  1.0000
  O   O65       1.0  0.61866  0.61037  0.55266  1.0000
  O   O66       1.0  0.58984  0.59165  0.45770  1.0000
  H   H134      1.0  0.58325  0.58659  0.40326  1.0000
  C   C276      1.0  0.35197  0.95354  0.39890  1.0000
  N   N33       1.0  0.36446  0.97972  0.39989  1.0000
  C   C277      1.0  0.40836  0.03386  0.41172  1.0000
  C   C278      1.0  0.42468  0.06101  0.41277  1.0000
  H   H135      1.0  0.43879  0.06918  0.46090  1.0000
  H   H136      1.0  0.34661  0.94389  0.45873  1.0000
  C   C279      1.0  0.41298  0.01915  0.47335  1.0000
  O   O67       1.0  0.41017  0.02233  0.55271  1.0000
  O   O68       1.0  0.42890  0.01223  0.45780  1.0000
  H   H137      1.0  0.43397  0.01070  0.40337  1.0000
  C   C280      1.0  0.95104  0.61062  0.39890  1.0000
  N   N34       1.0  0.97721  0.62431  0.39986  1.0000
  H   H138      1.0  0.94138  0.60633  0.45873  1.0000
  C   C281      1.0  0.40996  0.35445  0.39884  1.0000
  N   N35       1.0  0.39626  0.36693  0.39982  1.0000
  C   C282      1.0  0.38603  0.41084  0.41169  1.0000
  C   C283      1.0  0.37520  0.42716  0.41275  1.0000
  H   H139      1.0  0.38113  0.44127  0.46089  1.0000
  H   H140      1.0  0.41424  0.34907  0.45866  1.0000
  C   C284      1.0  0.40535  0.41546  0.47335  1.0000
  O   O69       1.0  0.39935  0.41264  0.55270  1.0000
  O   O70       1.0  0.42819  0.43136  0.45784  1.0000
  H   H141      1.0  0.43479  0.43644  0.40342  1.0000
  C   C285      1.0  0.66609  0.06954  0.39883  1.0000
  N   N36       1.0  0.65360  0.04337  0.39983  1.0000
  C   C286      1.0  0.60970  0.98922  0.41169  1.0000
  C   C287      1.0  0.59338  0.96207  0.41275  1.0000
  H   H142      1.0  0.57928  0.95389  0.46089  1.0000
  H   H143      1.0  0.67147  0.07919  0.45865  1.0000
  C   C288      1.0  0.60508  0.00392  0.47336  1.0000
  O   O71       1.0  0.60790  0.00074  0.55270  1.0000
  O   O72       1.0  0.58917  0.01084  0.45785  1.0000
  H   H144      1.0  0.58409  0.01236  0.40343  1.0000
