data_image0
_chemical_formula_structural       C2NC3H3OC2NC3H3ONCHNCHNCHNCHNCHNCHC2NC3H3OC2NC3H3ONCHNCHC2NC3H3OC2NC3H3ONCHNCHNCHNCHC2NC3H3OC2NC3H3ONCHNCHC2NC3H3OC2NC3H3ONCHNCHNCHNCHC2NC3H3OC2NC3H3OCNCNCNCNCNCNCNCNCNCNCNCNCNCNCNCNCNCNCNCNCNCNCNCNCNCNCNCNCNCNCNCNCNCNCNCNCNCNCNCNCNCNCNCNCNCNCNCNCNCNCNCNCNCNCNCNCNCNCNCN2CHNCHC2NC3H3OC2NC3H3OC2NC3H3OC2NC3H3OC2NC3H3OC2NC3H3ONCHNCHC2NC3H3OC2NC3H3ONCHNCHC2NC3H3OC2NC3H3OC2NC3H3OC2NC3H3ONCHNCHC2NC3H3OC2NC3H3ONCHNCHC2NC3H3OC2NC3H3OC2NC3H3OC2NC3H3ONCHNCHC2NC3H3OC2NC3H3ONCHNCHNCHNCHNCHNCHC2NC3H3OC2NC3H3ONCHNCHC2NC3H3OC2NC3H3ONCHNCHNCHNCHC2NC3H3OC2NC3H3ONCHNCHC2NC3H3OC2NC3H3ONCHNCHNCHNCHC2NC3H3OC2NC3H3OCNCNCNCNCNCNCNCNCNCNCNCNCNCNCNCNCNCNCNCNCNCNCNCNCNCNCNCNCNCNCNCNCNCNCNCNCNCNCNCNCNCNCNCNCNCNCNCNCNCNCNCNCNCNCNCNCNCNCNCN2CHNCHC2NC3H3OC2NC3H3OC2NC3H3OC2NC3H3OC2NC3H3OC2NC3H3ONCHNCHC2NC3H3OC2NC3H3ONCHNCHC2NC3H3OC2NC3H3OC2NC3H3OC2NC3H3ONCHNCHC2NC3H3OC2NC3H3ONCHNCHC2NC3H3OC2NC3H3OC2NC3H3OC2NC3H3ONCHNCH
_chemical_formula_sum              "C480 N240 H240 O60"
_cell_length_a       83.6814
_cell_length_b       44.079
_cell_length_c       14.8765
_cell_angle_alpha    90
_cell_angle_beta     90
_cell_angle_gamma    90

_space_group_name_H-M_alt    "P 1"
_space_group_IT_number       1

loop_
  _space_group_symop_operation_xyz
  'x, y, z'

loop_
  _atom_site_type_symbol
  _atom_site_label
  _atom_site_symmetry_multiplicity
  _atom_site_fract_x
  _atom_site_fract_y
  _atom_site_fract_z
  _atom_site_occupancy
  C   C1        1.0  0.23810  0.13754  0.32561  1.0000
  C   C2        1.0  0.27001  0.11982  0.35156  1.0000
  N   N1        1.0  0.26613  0.14316  0.29623  1.0000
  C   C3        1.0  0.25090  0.15296  0.28175  1.0000
  C   C4        1.0  0.24880  0.17655  0.22135  1.0000
  C   C5        1.0  0.24033  0.17257  0.13716  1.0000
  H   H1        1.0  0.23466  0.15031  0.13214  1.0000
  H   H2        1.0  0.24861  0.17500  0.08085  1.0000
  H   H3        1.0  0.23105  0.18986  0.13140  1.0000
  O   O1        1.0  0.25683  0.19952  0.23092  1.0000
  C   C6        1.0  0.77068  0.36883  0.32584  1.0000
  C   C7        1.0  0.73876  0.38635  0.35291  1.0000
  N   N2        1.0  0.74262  0.36316  0.29701  1.0000
  C   C8        1.0  0.75785  0.35345  0.28198  1.0000
  C   C9        1.0  0.76002  0.32997  0.22124  1.0000
  C   C10       1.0  0.76782  0.33498  0.13546  1.0000
  H   H4        1.0  0.77390  0.35690  0.13234  1.0000
  H   H5        1.0  0.75905  0.33413  0.08115  1.0000
  H   H6        1.0  0.77671  0.31724  0.12442  1.0000
  O   O2        1.0  0.75158  0.30742  0.22836  1.0000
  N   N3        1.0  0.76532  0.12021  0.30649  1.0000
  C   C11       1.0  0.74954  0.11521  0.29127  1.0000
  H   H7        1.0  0.74608  0.10464  0.23327  1.0000
  N   N4        1.0  0.24367  0.38543  0.30397  1.0000
  C   C12       1.0  0.25952  0.39008  0.28999  1.0000
  H   H8        1.0  0.26323  0.39972  0.23108  1.0000
  N   N5        1.0  0.31408  0.48520  0.36265  1.0000
  C   C13       1.0  0.31570  0.01569  0.36163  1.0000
  H   H9        1.0  0.32604  0.02496  0.33762  1.0000
  N   N6        1.0  0.69472  0.02084  0.36251  1.0000
  C   C14       1.0  0.69307  0.49036  0.36259  1.0000
  H   H10       1.0  0.68274  0.48101  0.33868  1.0000
  N   N7        1.0  0.81379  0.23368  0.33825  1.0000
  C   C15       1.0  0.81484  0.26398  0.32618  1.0000
  H   H11       1.0  0.82362  0.27254  0.28579  1.0000
  N   N8        1.0  0.19515  0.27276  0.33481  1.0000
  C   C16       1.0  0.19403  0.24243  0.32360  1.0000
  H   H12       1.0  0.18528  0.23381  0.28312  1.0000
  C   C17       1.0  0.32913  0.12492  0.31260  1.0000
  C   C18       1.0  0.36106  0.14423  0.32357  1.0000
  N   N9        1.0  0.35675  0.11978  0.27393  1.0000
  C   C19       1.0  0.34151  0.10963  0.26470  1.0000
  C   C20       1.0  0.33910  0.08470  0.20948  1.0000
  C   C21       1.0  0.32931  0.08651  0.12933  1.0000
  H   H13       1.0  0.32063  0.06803  0.12974  1.0000
  H   H14       1.0  0.33680  0.08438  0.06950  1.0000
  H   H15       1.0  0.32278  0.10791  0.12484  1.0000
  O   O3        1.0  0.34807  0.06291  0.21710  1.0000
  C   C22       1.0  0.67959  0.38112  0.31559  1.0000
  C   C23       1.0  0.64773  0.36140  0.32611  1.0000
  N   N10       1.0  0.65195  0.38612  0.27740  1.0000
  C   C24       1.0  0.66716  0.39649  0.26834  1.0000
  C   C25       1.0  0.66950  0.42169  0.21407  1.0000
  C   C26       1.0  0.67871  0.41950  0.13174  1.0000
  H   H16       1.0  0.68692  0.43868  0.12769  1.0000
  H   H17       1.0  0.67074  0.42011  0.07359  1.0000
  H   H18       1.0  0.68573  0.39864  0.12830  1.0000
  O   O4        1.0  0.66017  0.44297  0.22051  1.0000
  N   N11       1.0  0.66730  0.10731  0.32291  1.0000
  C   C27       1.0  0.65164  0.11398  0.31689  1.0000
  H   H19       1.0  0.64406  0.09769  0.29377  1.0000
  N   N12       1.0  0.34153  0.39857  0.32492  1.0000
  C   C28       1.0  0.35719  0.39179  0.31905  1.0000
  H   H20       1.0  0.36480  0.40800  0.29586  1.0000
  C   C29       1.0  0.82997  0.37357  0.30000  1.0000
  C   C30       1.0  0.86168  0.39363  0.31434  1.0000
  N   N13       1.0  0.85776  0.36878  0.26561  1.0000
  C   C31       1.0  0.84264  0.35818  0.25485  1.0000
  C   C32       1.0  0.84049  0.33280  0.20079  1.0000
  C   C33       1.0  0.83444  0.33786  0.11067  1.0000
  H   H21       1.0  0.83109  0.31629  0.07972  1.0000
  H   H22       1.0  0.84353  0.34871  0.06897  1.0000
  H   H23       1.0  0.82380  0.35223  0.11182  1.0000
  O   O5        1.0  0.85043  0.31254  0.20769  1.0000
  C   C34       1.0  0.17877  0.13249  0.30244  1.0000
  C   C35       1.0  0.14711  0.11240  0.31889  1.0000
  N   N14       1.0  0.15094  0.13711  0.26926  1.0000
  C   C36       1.0  0.16602  0.14765  0.25731  1.0000
  C   C37       1.0  0.16776  0.17281  0.20223  1.0000
  C   C38       1.0  0.17739  0.17213  0.12130  1.0000
  H   H24       1.0  0.18602  0.19069  0.12308  1.0000
  H   H25       1.0  0.16976  0.17491  0.06233  1.0000
  H   H26       1.0  0.18396  0.15085  0.11405  1.0000
  O   O6        1.0  0.15889  0.19455  0.21366  1.0000
  N   N15       1.0  0.17409  0.39964  0.32215  1.0000
  C   C39       1.0  0.15883  0.40956  0.31013  1.0000
  H   H27       1.0  0.15644  0.42512  0.26103  1.0000
  N   N16       1.0  0.83462  0.10701  0.32252  1.0000
  C   C40       1.0  0.84987  0.09698  0.31063  1.0000
  H   H28       1.0  0.85231  0.08198  0.26010  1.0000
  N   N17       1.0  0.07688  0.14397  0.33211  1.0000
  C   C41       1.0  0.06623  0.16764  0.33109  1.0000
  H   H29       1.0  0.05425  0.16315  0.33153  1.0000
  N   N18       1.0  0.93188  0.36175  0.32786  1.0000
  C   C42       1.0  0.94250  0.33804  0.32724  1.0000
  H   H30       1.0  0.95448  0.34249  0.32819  1.0000
  C   C43       1.0  0.91556  0.14745  0.33351  1.0000
  C   C44       1.0  0.93651  0.19869  0.33220  1.0000
  N   N19       1.0  0.92041  0.20124  0.32736  1.0000
  C   C45       1.0  0.90974  0.17800  0.32776  1.0000
  C   C46       1.0  0.89394  0.18669  0.31699  1.0000
  C   C47       1.0  0.88799  0.19125  0.22649  1.0000
  H   H31       1.0  0.89120  0.17215  0.18333  1.0000
  H   H32       1.0  0.89292  0.21203  0.19769  1.0000
  H   H33       1.0  0.87496  0.19300  0.22709  1.0000
  O   O7        1.0  0.88873  0.20437  0.37338  1.0000
  C   C48       1.0  0.09319  0.35843  0.32852  1.0000
  C   C49       1.0  0.07236  0.30703  0.32678  1.0000
  N   N20       1.0  0.08847  0.30458  0.32188  1.0000
  C   C50       1.0  0.09907  0.32793  0.32214  1.0000
  C   C51       1.0  0.11490  0.31943  0.31021  1.0000
  C   C52       1.0  0.12064  0.31577  0.21896  1.0000
  H   H34       1.0  0.11739  0.33533  0.17771  1.0000
  H   H35       1.0  0.11560  0.29533  0.18866  1.0000
  H   H36       1.0  0.13366  0.31389  0.21861  1.0000
  O   O8        1.0  0.12013  0.30146  0.36568  1.0000
  N   N21       1.0  0.57728  0.39295  0.33471  1.0000
  C   C53       1.0  0.56656  0.41653  0.33312  1.0000
  H   H37       1.0  0.55460  0.41191  0.33479  1.0000
  N   N22       1.0  0.43148  0.11240  0.33196  1.0000
  C   C54       1.0  0.44218  0.08878  0.33057  1.0000
  H   H38       1.0  0.45413  0.09337  0.33275  1.0000
  C   C55       1.0  0.41632  0.39735  0.32579  1.0000
  C   C56       1.0  0.43697  0.44904  0.33015  1.0000
  N   N23       1.0  0.42106  0.45115  0.31583  1.0000
  C   C57       1.0  0.41057  0.42768  0.31221  1.0000
  C   C58       1.0  0.39517  0.43604  0.28884  1.0000
  C   C59       1.0  0.39194  0.44011  0.19369  1.0000
  H   H39       1.0  0.39583  0.42028  0.15547  1.0000
  H   H40       1.0  0.39812  0.46015  0.16800  1.0000
  H   H41       1.0  0.37913  0.44298  0.18229  1.0000
  O   O9        1.0  0.38865  0.45433  0.33878  1.0000
  C   C60       1.0  0.59253  0.10812  0.32127  1.0000
  C   C61       1.0  0.57199  0.05629  0.32465  1.0000
  N   N24       1.0  0.58793  0.05424  0.31129  1.0000
  C   C62       1.0  0.59835  0.07782  0.30794  1.0000
  C   C63       1.0  0.61379  0.06960  0.28473  1.0000
  C   C64       1.0  0.61710  0.06609  0.18948  1.0000
  H   H42       1.0  0.61327  0.08616  0.15219  1.0000
  H   H43       1.0  0.61093  0.04624  0.16254  1.0000
  H   H44       1.0  0.62993  0.06325  0.17832  1.0000
  O   O10       1.0  0.62027  0.05103  0.33391  1.0000
  N   N25       1.0  0.09450  0.02038  0.33709  1.0000
  C   C65       1.0  0.09289  0.48922  0.33435  1.0000
  H   H45       1.0  0.08236  0.47989  0.31345  1.0000
  N   N26       1.0  0.91426  0.48563  0.33556  1.0000
  C   C66       1.0  0.91584  0.01681  0.33412  1.0000
  H   H46       1.0  0.92637  0.02627  0.31373  1.0000
  N   N27       1.0  0.59498  0.26947  0.34370  1.0000
  C   C67       1.0  0.59322  0.23834  0.34199  1.0000
  H   H47       1.0  0.58270  0.22913  0.32043  1.0000
  N   N28       1.0  0.41380  0.23606  0.34360  1.0000
  C   C68       1.0  0.41552  0.26721  0.34257  1.0000
  H   H48       1.0  0.42607  0.27651  0.32192  1.0000
  C   C69       1.0  0.02124  0.25423  0.32373  1.0000
  C   C70       1.0  0.98744  0.25239  0.32962  1.0000
  N   N29       1.0  0.99559  0.27715  0.30029  1.0000
  C   C71       1.0  0.01183  0.27949  0.29570  1.0000
  C   C72       1.0  0.01812  0.30548  0.25704  1.0000
  C   C73       1.0  0.02134  0.30442  0.16118  1.0000
  H   H49       1.0  0.02831  0.32424  0.14095  1.0000
  H   H50       1.0  0.01018  0.30423  0.12307  1.0000
  H   H51       1.0  0.02825  0.28425  0.14361  1.0000
  O   O11       1.0  0.01279  0.32962  0.28453  1.0000
  C   C74       1.0  0.52125  0.00351  0.32752  1.0000
  C   C75       1.0  0.48746  0.00297  0.33529  1.0000
  N   N30       1.0  0.49577  0.02718  0.30367  1.0000
  C   C76       1.0  0.51202  0.02891  0.29834  1.0000
  C   C77       1.0  0.51846  0.05428  0.25676  1.0000
  C   C78       1.0  0.52150  0.05251  0.16098  1.0000
  H   H52       1.0  0.52865  0.07193  0.13934  1.0000
  H   H53       1.0  0.51027  0.05252  0.12354  1.0000
  H   H54       1.0  0.52815  0.53196  0.14421  1.0000
  O   O12       1.0  0.51354  0.07870  0.28450  1.0000
  C   C79       1.0  0.31415  0.11117  0.33108  1.0000
  N   N31       1.0  0.29949  0.12510  0.33318  1.0000
  C   C80       1.0  0.28599  0.10913  0.35591  1.0000
  N   N32       1.0  0.28767  0.07930  0.37525  1.0000
  C   C81       1.0  0.30190  0.06502  0.37489  1.0000
  N   N33       1.0  0.31491  0.08130  0.35219  1.0000
  C   C82       1.0  0.69459  0.39487  0.33388  1.0000
  N   N34       1.0  0.70925  0.38098  0.33551  1.0000
  C   C83       1.0  0.72277  0.39698  0.35785  1.0000
  N   N35       1.0  0.72111  0.42682  0.37707  1.0000
  C   C84       1.0  0.70686  0.44107  0.37707  1.0000
  N   N36       1.0  0.69384  0.42475  0.35488  1.0000
  C   C85       1.0  0.69438  0.11363  0.35977  1.0000
  N   N37       1.0  0.70869  0.12864  0.35444  1.0000
  C   C86       1.0  0.72272  0.11273  0.35697  1.0000
  N   N38       1.0  0.72230  0.08242  0.36934  1.0000
  C   C87       1.0  0.70846  0.06712  0.37797  1.0000
  N   N39       1.0  0.69475  0.08306  0.37131  1.0000
  C   C88       1.0  0.31441  0.39240  0.36150  1.0000
  N   N40       1.0  0.30010  0.37742  0.35618  1.0000
  C   C89       1.0  0.28607  0.39335  0.35877  1.0000
  N   N41       1.0  0.28650  0.42366  0.37095  1.0000
  C   C90       1.0  0.30034  0.43896  0.37941  1.0000
  N   N42       1.0  0.31405  0.42300  0.37279  1.0000
  C   C91       1.0  0.81480  0.36004  0.31435  1.0000
  N   N43       1.0  0.80020  0.37416  0.31447  1.0000
  C   C92       1.0  0.78651  0.35768  0.32853  1.0000
  N   N44       1.0  0.78780  0.32770  0.34670  1.0000
  C   C93       1.0  0.80207  0.31360  0.34926  1.0000
  N   N45       1.0  0.81529  0.32995  0.33240  1.0000
  C   C94       1.0  0.19394  0.14619  0.31568  1.0000
  N   N46       1.0  0.20855  0.13211  0.31567  1.0000
  C   C95       1.0  0.22225  0.14867  0.32847  1.0000
  N   N47       1.0  0.22096  0.17871  0.34563  1.0000
  C   C96       1.0  0.20669  0.19279  0.34822  1.0000
  N   N48       1.0  0.19344  0.17636  0.33254  1.0000
  C   C97       1.0  0.19360  0.36491  0.38055  1.0000
  N   N49       1.0  0.20800  0.37970  0.37886  1.0000
  C   C98       1.0  0.22193  0.36336  0.38145  1.0000
  N   N50       1.0  0.22120  0.33277  0.38420  1.0000
  C   C99       1.0  0.20718  0.31784  0.38445  1.0000
  N   N51       1.0  0.19359  0.33415  0.38146  1.0000
  C   C100      1.0  0.81511  0.14142  0.38249  1.0000
  N   N52       1.0  0.80065  0.12685  0.38047  1.0000
  C   C101      1.0  0.78678  0.14336  0.38383  1.0000
  N   N53       1.0  0.78765  0.17393  0.38741  1.0000
  C   C102      1.0  0.80172  0.18867  0.38812  1.0000
  N   N54       1.0  0.81525  0.17218  0.38445  1.0000
  C   C103      1.0  0.10333  0.12075  0.33240  1.0000
  N   N55       1.0  0.09904  0.09057  0.34292  1.0000
  C   C104      1.0  0.11028  0.06766  0.35041  1.0000
  N   N56       1.0  0.12578  0.07650  0.34223  1.0000
  C   C105      1.0  0.13080  0.10499  0.32853  1.0000
  N   N57       1.0  0.11925  0.12618  0.32409  1.0000
  C   C106      1.0  0.90546  0.38512  0.32782  1.0000
  N   N58       1.0  0.90976  0.41527  0.33905  1.0000
  C   C107      1.0  0.89853  0.43821  0.34670  1.0000
  N   N59       1.0  0.88304  0.42940  0.33797  1.0000
  C   C108      1.0  0.87801  0.40097  0.32348  1.0000
  N   N60       1.0  0.88954  0.37974  0.31902  1.0000
  C   C109      1.0  0.90565  0.12106  0.33809  1.0000
  N   N61       1.0  0.91054  0.09103  0.33872  1.0000
  C   C110      1.0  0.89981  0.06736  0.34663  1.0000
  N   N62       1.0  0.88406  0.07528  0.35141  1.0000
  C   C111      1.0  0.87859  0.10384  0.35032  1.0000
  N   N63       1.0  0.88965  0.12593  0.34569  1.0000
  C   C112      1.0  0.10303  0.38488  0.33422  1.0000
  N   N64       1.0  0.09813  0.41490  0.33603  1.0000
  C   C113      1.0  0.10884  0.43856  0.34529  1.0000
  N   N65       1.0  0.12458  0.43063  0.35013  1.0000
  C   C114      1.0  0.13008  0.40210  0.34793  1.0000
  N   N66       1.0  0.11903  0.38002  0.34210  1.0000
  C   C115      1.0  0.60382  0.36981  0.33526  1.0000
  N   N67       1.0  0.59958  0.33962  0.34679  1.0000
  C   C116      1.0  0.61080  0.31669  0.35575  1.0000
  N   N68       1.0  0.62631  0.32560  0.34836  1.0000
  C   C117      1.0  0.63134  0.35406  0.33376  1.0000
  N   N69       1.0  0.61978  0.37524  0.32782  1.0000
  C   C118      1.0  0.40496  0.13563  0.33261  1.0000
  N   N70       1.0  0.40922  0.16579  0.34481  1.0000
  C   C119      1.0  0.39801  0.18874  0.35416  1.0000
  N   N71       1.0  0.38251  0.17984  0.34646  1.0000
  C   C120      1.0  0.37746  0.15144  0.33125  1.0000
  N   N72       1.0  0.38900  0.13024  0.32494  1.0000
  C   C121      1.0  0.40634  0.37107  0.33214  1.0000
  N   N73       1.0  0.41087  0.34102  0.34094  1.0000
  C   C122      1.0  0.39985  0.31802  0.35330  1.0000
  N   N74       1.0  0.38415  0.32661  0.35594  1.0000
  C   C123      1.0  0.37891  0.35525  0.34595  1.0000
  N   N75       1.0  0.39037  0.37642  0.33471  1.0000
  C   C124      1.0  0.60245  0.13445  0.32860  1.0000
  N   N76       1.0  0.59788  0.16447  0.33810  1.0000
  C   C125      1.0  0.60886  0.18747  0.35156  1.0000
  N   N77       1.0  0.62456  0.17892  0.35430  1.0000
  C   C126      1.0  0.62984  0.15035  0.34366  1.0000
  N   N78       1.0  0.61842  0.12917  0.33153  1.0000
  C   C127      1.0  0.06327  0.27988  0.32691  1.0000
  N   N79       1.0  0.04704  0.27948  0.32626  1.0000
  C   C128      1.0  0.03833  0.25328  0.32568  1.0000
  N   N80       1.0  0.04652  0.22636  0.32763  1.0000
  C   C129      1.0  0.06282  0.22515  0.32848  1.0000
  N   N81       1.0  0.07067  0.25233  0.32767  1.0000
  C   C130      1.0  0.94565  0.22579  0.33149  1.0000
  N   N82       1.0  0.96191  0.22626  0.33278  1.0000
  C   C131      1.0  0.97043  0.25270  0.33054  1.0000
  N   N83       1.0  0.96217  0.27950  0.32756  1.0000
  C   C132      1.0  0.94588  0.28055  0.32729  1.0000
  N   N84       1.0  0.93815  0.25327  0.32885  1.0000
  C   C133      1.0  0.56318  0.02885  0.32680  1.0000
  N   N85       1.0  0.54699  0.02831  0.32851  1.0000
  C   C134      1.0  0.53834  0.00210  0.32862  1.0000
  N   N86       1.0  0.54657  0.47520  0.32978  1.0000
  C   C135      1.0  0.56291  0.47406  0.32869  1.0000
  N   N87       1.0  0.57068  0.00135  0.32638  1.0000
  C   C136      1.0  0.44581  0.47645  0.33190  1.0000
  N   N88       1.0  0.46203  0.47713  0.33614  1.0000
  C   C137      1.0  0.47046  0.50363  0.33531  1.0000
  N   N89       1.0  0.46213  0.03037  0.33126  1.0000
  C   C138      1.0  0.44582  0.03128  0.32862  1.0000
  N   N90       1.0  0.43820  0.50384  0.32818  1.0000
  N   N91       1.0  0.24191  0.11420  0.38091  1.0000
  C   C139      1.0  0.25713  0.10465  0.39427  1.0000
  H   H55       1.0  0.25897  0.08672  0.43655  1.0000
  N   N92       1.0  0.76687  0.39200  0.38180  1.0000
  C   C140      1.0  0.75166  0.40147  0.39565  1.0000
  H   H56       1.0  0.74982  0.41926  0.43843  1.0000
  C   C141      1.0  0.77100  0.13225  0.38428  1.0000
  C   C142      1.0  0.73823  0.12464  0.35600  1.0000
  N   N93       1.0  0.74394  0.13590  0.43432  1.0000
  C   C143      1.0  0.75970  0.14101  0.45111  1.0000
  C   C144      1.0  0.76400  0.15321  0.53370  1.0000
  C   C145      1.0  0.77135  0.13346  0.59979  1.0000
  H   H57       1.0  0.78122  0.12063  0.57044  1.0000
  H   H58       1.0  0.76257  0.11752  0.62655  1.0000
  H   H59       1.0  0.77619  0.14684  0.65539  1.0000
  O   O13       1.0  0.75480  0.17206  0.56522  1.0000
  C   C146      1.0  0.23766  0.37469  0.38262  1.0000
  C   C147      1.0  0.27055  0.38150  0.35719  1.0000
  N   N94       1.0  0.26450  0.37154  0.43631  1.0000
  C   C148      1.0  0.24866  0.36682  0.45188  1.0000
  C   C149      1.0  0.24399  0.35565  0.53522  1.0000
  C   C150      1.0  0.23656  0.37647  0.59800  1.0000
  H   H60       1.0  0.22686  0.38909  0.56618  1.0000
  H   H61       1.0  0.24537  0.39257  0.62368  1.0000
  H   H62       1.0  0.23149  0.36396  0.65466  1.0000
  O   O14       1.0  0.25295  0.33681  0.56866  1.0000
  C   C151      1.0  0.30055  0.47063  0.38925  1.0000
  C   C152      1.0  0.30247  0.03355  0.38648  1.0000
  N   N95       1.0  0.28907  0.01904  0.41453  1.0000
  C   C153      1.0  0.28742  0.48849  0.41872  1.0000
  C   C154      1.0  0.27323  0.47687  0.45239  1.0000
  C   C155      1.0  0.27298  0.46879  0.54693  1.0000
  H   H63       1.0  0.26216  0.45593  0.56247  1.0000
  H   H64       1.0  0.27320  0.48916  0.58877  1.0000
  H   H65       1.0  0.28322  0.45459  0.56432  1.0000
  O   O15       1.0  0.26090  0.48827  0.42379  1.0000
  C   C156      1.0  0.70825  0.03548  0.38860  1.0000
  C   C157      1.0  0.70629  0.47256  0.38810  1.0000
  N   N96       1.0  0.71971  0.48715  0.41562  1.0000
  C   C158      1.0  0.72137  0.01772  0.41869  1.0000
  C   C159      1.0  0.73555  0.02948  0.45230  1.0000
  C   C160      1.0  0.73592  0.03807  0.54626  1.0000
  H   H66       1.0  0.74675  0.05106  0.56064  1.0000
  H   H67       1.0  0.73578  0.01792  0.58902  1.0000
  H   H68       1.0  0.72568  0.05230  0.56338  1.0000
  O   O16       1.0  0.74779  0.01809  0.42244  1.0000
  C   C161      1.0  0.80217  0.22033  0.38827  1.0000
  C   C162      1.0  0.80291  0.28250  0.36426  1.0000
  N   N97       1.0  0.79152  0.26928  0.41582  1.0000
  C   C163      1.0  0.79061  0.23900  0.43083  1.0000
  C   C164      1.0  0.77951  0.22852  0.49258  1.0000
  C   C165      1.0  0.78515  0.22526  0.58445  1.0000
  H   H69       1.0  0.79580  0.21095  0.58698  1.0000
  H   H70       1.0  0.77602  0.21459  0.62635  1.0000
  H   H71       1.0  0.78802  0.24740  0.61327  1.0000
  O   O17       1.0  0.76593  0.23852  0.48490  1.0000
  C   C166      1.0  0.20678  0.28618  0.38457  1.0000
  C   C167      1.0  0.20592  0.22396  0.36226  1.0000
  N   N98       1.0  0.21732  0.23726  0.41357  1.0000
  C   C168      1.0  0.21829  0.26758  0.42775  1.0000
  C   C169      1.0  0.22935  0.27818  0.48963  1.0000
  C   C170      1.0  0.22362  0.28160  0.58128  1.0000
  H   H72       1.0  0.21299  0.29597  0.58332  1.0000
  H   H73       1.0  0.23273  0.29227  0.62336  1.0000
  H   H74       1.0  0.22069  0.25953  0.61029  1.0000
  O   O18       1.0  0.24293  0.26816  0.48247  1.0000
  N   N99       1.0  0.33341  0.14964  0.36174  1.0000
  C   C171      1.0  0.34862  0.16049  0.36610  1.0000
  H   H75       1.0  0.35096  0.17867  0.40643  1.0000
  N   N100      1.0  0.67541  0.35607  0.36362  1.0000
  C   C172      1.0  0.66025  0.34503  0.36763  1.0000
  H   H76       1.0  0.65797  0.32666  0.40731  1.0000
  C   C173      1.0  0.67886  0.12655  0.35272  1.0000
  C   C174      1.0  0.64631  0.14278  0.34458  1.0000
  N   N101      1.0  0.65777  0.16251  0.37372  1.0000
  C   C175      1.0  0.67377  0.15607  0.37820  1.0000
  C   C176      1.0  0.68407  0.17722  0.41491  1.0000
  C   C177      1.0  0.68695  0.17606  0.51099  1.0000
  H   H77       1.0  0.69006  0.15308  0.53220  1.0000
  H   H78       1.0  0.67636  0.18338  0.54796  1.0000
  H   H79       1.0  0.69692  0.19091  0.52883  1.0000
  O   O19       1.0  0.68296  0.20285  0.38379  1.0000
  C   C178      1.0  0.32993  0.37942  0.35466  1.0000
  C   C179      1.0  0.36245  0.36294  0.34670  1.0000
  N   N102      1.0  0.35095  0.34329  0.37573  1.0000
  C   C180      1.0  0.33495  0.34986  0.38014  1.0000
  C   C181      1.0  0.32458  0.32877  0.41673  1.0000
  C   C182      1.0  0.32183  0.32999  0.51285  1.0000
  H   H80       1.0  0.31875  0.35298  0.53416  1.0000
  H   H81       1.0  0.33247  0.32265  0.54940  1.0000
  H   H82       1.0  0.31188  0.31515  0.53105  1.0000
  O   O20       1.0  0.32560  0.30333  0.38422  1.0000
  N   N103      1.0  0.83386  0.39879  0.34807  1.0000
  C   C183      1.0  0.84898  0.40994  0.35410  1.0000
  H   H83       1.0  0.85105  0.42843  0.39366  1.0000
  N   N104      1.0  0.17499  0.10741  0.35139  1.0000
  C   C184      1.0  0.15989  0.09620  0.35834  1.0000
  H   H84       1.0  0.15787  0.07783  0.39852  1.0000
  C   C185      1.0  0.17823  0.37841  0.38443  1.0000
  C   C186      1.0  0.14640  0.39570  0.35942  1.0000
  N   N105      1.0  0.15056  0.37514  0.42277  1.0000
  C   C187      1.0  0.16581  0.36623  0.43933  1.0000
  C   C188      1.0  0.16845  0.34611  0.50977  1.0000
  C   C189      1.0  0.17497  0.35853  0.59237  1.0000
  H   H85       1.0  0.17866  0.34020  0.63730  1.0000
  H   H86       1.0  0.16602  0.37235  0.62672  1.0000
  H   H87       1.0  0.18547  0.37253  0.57898  1.0000
  O   O21       1.0  0.15865  0.32575  0.51971  1.0000
  C   C190      1.0  0.83042  0.12767  0.38632  1.0000
  C   C191      1.0  0.86226  0.11027  0.36160  1.0000
  N   N106      1.0  0.85804  0.13031  0.42632  1.0000
  C   C192      1.0  0.84278  0.13922  0.44279  1.0000
  C   C193      1.0  0.84006  0.15879  0.51448  1.0000
  C   C194      1.0  0.83325  0.14582  0.59558  1.0000
  H   H88       1.0  0.82953  0.16384  0.64153  1.0000
  H   H89       1.0  0.84203  0.13154  0.62966  1.0000
  H   H90       1.0  0.82271  0.13214  0.58029  1.0000
  O   O22       1.0  0.84993  0.17887  0.52676  1.0000
  C   C195      1.0  0.09317  0.14690  0.33124  1.0000
  C   C196      1.0  0.07189  0.19791  0.32964  1.0000
  N   N107      1.0  0.08801  0.20063  0.33011  1.0000
  C   C197      1.0  0.09881  0.17765  0.33043  1.0000
  C   C198      1.0  0.11460  0.18710  0.33599  1.0000
  C   C199      1.0  0.12093  0.19468  0.42382  1.0000
  H   H91       1.0  0.11810  0.17697  0.47263  1.0000
  H   H92       1.0  0.11596  0.21617  0.44742  1.0000
  H   H93       1.0  0.13393  0.19676  0.42052  1.0000
  O   O23       1.0  0.11924  0.20277  0.27323  1.0000
  C   C200      1.0  0.91559  0.35890  0.32677  1.0000
  C   C201      1.0  0.93681  0.30779  0.32636  1.0000
  N   N108      1.0  0.92069  0.30511  0.32645  1.0000
  C   C202      1.0  0.90991  0.32816  0.32613  1.0000
  C   C203      1.0  0.89411  0.31880  0.33135  1.0000
  C   C204      1.0  0.88780  0.31184  0.41986  1.0000
  H   H94       1.0  0.89061  0.32993  0.46752  1.0000
  H   H95       1.0  0.89280  0.29057  0.44492  1.0000
  H   H96       1.0  0.87480  0.30968  0.41683  1.0000
  O   O24       1.0  0.88943  0.30234  0.27055  1.0000
  N   N109      1.0  0.93183  0.14476  0.33698  1.0000
  C   C205      1.0  0.94234  0.16857  0.33618  1.0000
  H   H97       1.0  0.95432  0.16428  0.33950  1.0000
  N   N110      1.0  0.07691  0.36099  0.33172  1.0000
  C   C206      1.0  0.06646  0.33710  0.33034  1.0000
  H   H98       1.0  0.05447  0.34128  0.33371  1.0000
  C   C207      1.0  0.59358  0.39592  0.33270  1.0000
  C   C208      1.0  0.57210  0.44688  0.32984  1.0000
  N   N111      1.0  0.58822  0.44966  0.32887  1.0000
  C   C209      1.0  0.59910  0.42674  0.32975  1.0000
  C   C210      1.0  0.61488  0.43631  0.33277  1.0000
  C   C211      1.0  0.62138  0.44444  0.41997  1.0000
  H   H99       1.0  0.61874  0.42693  0.46979  1.0000
  H   H100      1.0  0.61638  0.46597  0.44305  1.0000
  H   H101      1.0  0.63436  0.44669  0.41572  1.0000
  O   O25       1.0  0.61937  0.45206  0.26987  1.0000
  C   C212      1.0  0.41519  0.10948  0.32980  1.0000
  C   C213      1.0  0.43662  0.05844  0.32771  1.0000
  N   N112      1.0  0.42049  0.05568  0.32646  1.0000
  C   C214      1.0  0.40964  0.07866  0.32664  1.0000
  C   C215      1.0  0.39385  0.06915  0.33024  1.0000
  C   C216      1.0  0.38731  0.06078  0.41697  1.0000
  H   H102      1.0  0.39001  0.07806  0.46736  1.0000
  H   H103      1.0  0.39224  0.03910  0.43928  1.0000
  H   H104      1.0  0.37433  0.05871  0.41251  1.0000
  O   O26       1.0  0.38940  0.05398  0.26599  1.0000
  N   N113      1.0  0.43247  0.39505  0.33802  1.0000
  C   C217      1.0  0.44287  0.41907  0.33932  1.0000
  H   H105      1.0  0.45475  0.41513  0.34968  1.0000
  N   N114      1.0  0.57635  0.11031  0.33245  1.0000
  C   C218      1.0  0.56600  0.08621  0.33288  1.0000
  H   H106      1.0  0.55410  0.09007  0.34280  1.0000
  C   C219      1.0  0.10824  0.03558  0.36027  1.0000
  C   C220      1.0  0.10632  0.47052  0.35137  1.0000
  N   N115      1.0  0.11926  0.48628  0.37983  1.0000
  C   C221      1.0  0.12116  0.01647  0.38746  1.0000
  C   C222      1.0  0.13544  0.02525  0.42758  1.0000
  C   C223      1.0  0.13564  0.02888  0.52431  1.0000
  H   H107      1.0  0.14666  0.04012  0.54536  1.0000
  H   H108      1.0  0.13494  0.00680  0.55741  1.0000
  H   H109      1.0  0.12562  0.04285  0.54659  1.0000
  O   O27       1.0  0.14762  0.01497  0.39353  1.0000
  C   C224      1.0  0.90052  0.47026  0.35779  1.0000
  C   C225      1.0  0.90236  0.03539  0.35141  1.0000
  N   N116      1.0  0.88942  0.01945  0.37887  1.0000
  C   C226      1.0  0.88756  0.48923  0.38546  1.0000
  C   C227      1.0  0.87324  0.48026  0.42456  1.0000
  C   C228      1.0  0.87313  0.47609  0.52126  1.0000
  H   H110      1.0  0.86209  0.46483  0.54216  1.0000
  H   H111      1.0  0.87393  0.49796  0.55549  1.0000
  H   H112      1.0  0.88312  0.46187  0.54257  1.0000
  O   O28       1.0  0.86100  0.49103  0.39257  1.0000
  C   C229      1.0  0.60876  0.28460  0.36642  1.0000
  C   C230      1.0  0.60657  0.21945  0.35960  1.0000
  N   N117      1.0  0.61962  0.23504  0.38733  1.0000
  C   C231      1.0  0.62161  0.26530  0.39396  1.0000
  C   C232      1.0  0.63595  0.27407  0.43303  1.0000
  C   C233      1.0  0.63638  0.27817  0.52963  1.0000
  H   H113      1.0  0.64747  0.28945  0.54955  1.0000
  H   H114      1.0  0.63570  0.25627  0.56374  1.0000
  H   H115      1.0  0.62643  0.29232  0.55198  1.0000
  O   O29       1.0  0.64812  0.26341  0.39983  1.0000
  C   C234      1.0  0.40001  0.22082  0.36557  1.0000
  C   C235      1.0  0.40215  0.28602  0.36048  1.0000
  N   N118      1.0  0.38908  0.27032  0.38735  1.0000
  C   C236      1.0  0.38712  0.24003  0.39314  1.0000
  C   C237      1.0  0.37273  0.23113  0.43164  1.0000
  C   C238      1.0  0.37224  0.22741  0.52831  1.0000
  H   H116      1.0  0.36115  0.21619  0.54824  1.0000
  H   H117      1.0  0.37287  0.24945  0.56170  1.0000
  H   H118      1.0  0.38218  0.21337  0.55139  1.0000
  O   O30       1.0  0.36067  0.24152  0.39658  1.0000
  N   N119      1.0  0.01303  0.22922  0.35158  1.0000
  C   C239      1.0  0.99682  0.22716  0.35492  1.0000
  H   H119      1.0  0.99172  0.20752  0.37743  1.0000
  N   N120      1.0  0.51287  0.97901  0.35747  1.0000
  C   C240      1.0  0.49666  0.97760  0.36177  1.0000
  H   H120      1.0  0.49140  0.95829  0.38561  1.0000
  C   C241      1.0  0.23810  0.63754  0.32561  1.0000
  C   C242      1.0  0.27001  0.61982  0.35156  1.0000
  N   N121      1.0  0.26613  0.64316  0.29623  1.0000
  C   C243      1.0  0.25090  0.65296  0.28175  1.0000
  C   C244      1.0  0.24880  0.67655  0.22135  1.0000
  C   C245      1.0  0.24033  0.67257  0.13716  1.0000
  H   H121      1.0  0.23466  0.65031  0.13214  1.0000
  H   H122      1.0  0.24861  0.67500  0.08085  1.0000
  H   H123      1.0  0.23105  0.68986  0.13140  1.0000
  O   O31       1.0  0.25683  0.69952  0.23092  1.0000
  C   C246      1.0  0.77068  0.86883  0.32584  1.0000
  C   C247      1.0  0.73876  0.88635  0.35291  1.0000
  N   N122      1.0  0.74262  0.86317  0.29701  1.0000
  C   C248      1.0  0.75785  0.85345  0.28198  1.0000
  C   C249      1.0  0.76002  0.82997  0.22124  1.0000
  C   C250      1.0  0.76782  0.83498  0.13546  1.0000
  H   H124      1.0  0.77390  0.85689  0.13234  1.0000
  H   H125      1.0  0.75905  0.83413  0.08115  1.0000
  H   H126      1.0  0.77671  0.81724  0.12442  1.0000
  O   O32       1.0  0.75158  0.80742  0.22836  1.0000
  N   N123      1.0  0.76532  0.62021  0.30649  1.0000
  C   C251      1.0  0.74954  0.61521  0.29127  1.0000
  H   H127      1.0  0.74608  0.60464  0.23327  1.0000
  N   N124      1.0  0.24367  0.88543  0.30397  1.0000
  C   C252      1.0  0.25952  0.89008  0.28999  1.0000
  H   H128      1.0  0.26323  0.89972  0.23108  1.0000
  N   N125      1.0  0.31408  0.98520  0.36265  1.0000
  C   C253      1.0  0.31570  0.51568  0.36163  1.0000
  H   H129      1.0  0.32604  0.52496  0.33762  1.0000
  N   N126      1.0  0.69472  0.52084  0.36251  1.0000
  C   C254      1.0  0.69307  0.99036  0.36259  1.0000
  H   H130      1.0  0.68274  0.98101  0.33868  1.0000
  N   N127      1.0  0.81379  0.73368  0.33825  1.0000
  C   C255      1.0  0.81484  0.76398  0.32618  1.0000
  H   H131      1.0  0.82362  0.77254  0.28579  1.0000
  N   N128      1.0  0.19515  0.77276  0.33481  1.0000
  C   C256      1.0  0.19403  0.74243  0.32360  1.0000
  H   H132      1.0  0.18528  0.73381  0.28312  1.0000
  C   C257      1.0  0.32913  0.62492  0.31260  1.0000
  C   C258      1.0  0.36106  0.64423  0.32357  1.0000
  N   N129      1.0  0.35675  0.61978  0.27393  1.0000
  C   C259      1.0  0.34151  0.60963  0.26470  1.0000
  C   C260      1.0  0.33910  0.58470  0.20948  1.0000
  C   C261      1.0  0.32931  0.58651  0.12933  1.0000
  H   H133      1.0  0.32063  0.56803  0.12974  1.0000
  H   H134      1.0  0.33680  0.58438  0.06950  1.0000
  H   H135      1.0  0.32278  0.60791  0.12484  1.0000
  O   O33       1.0  0.34807  0.56290  0.21710  1.0000
  C   C262      1.0  0.67959  0.88112  0.31559  1.0000
  C   C263      1.0  0.64773  0.86140  0.32611  1.0000
  N   N130      1.0  0.65195  0.88612  0.27740  1.0000
  C   C264      1.0  0.66716  0.89649  0.26834  1.0000
  C   C265      1.0  0.66950  0.92169  0.21407  1.0000
  C   C266      1.0  0.67871  0.91950  0.13174  1.0000
  H   H136      1.0  0.68692  0.93868  0.12769  1.0000
  H   H137      1.0  0.67074  0.92011  0.07359  1.0000
  H   H138      1.0  0.68573  0.89864  0.12830  1.0000
  O   O34       1.0  0.66017  0.94297  0.22051  1.0000
  N   N131      1.0  0.66730  0.60731  0.32291  1.0000
  C   C267      1.0  0.65164  0.61398  0.31689  1.0000
  H   H139      1.0  0.64406  0.59769  0.29377  1.0000
  N   N132      1.0  0.34153  0.89857  0.32492  1.0000
  C   C268      1.0  0.35719  0.89179  0.31905  1.0000
  H   H140      1.0  0.36480  0.90800  0.29586  1.0000
  C   C269      1.0  0.82997  0.87358  0.30000  1.0000
  C   C270      1.0  0.86168  0.89362  0.31434  1.0000
  N   N133      1.0  0.85776  0.86878  0.26561  1.0000
  C   C271      1.0  0.84264  0.85818  0.25485  1.0000
  C   C272      1.0  0.84049  0.83280  0.20079  1.0000
  C   C273      1.0  0.83444  0.83786  0.11067  1.0000
  H   H141      1.0  0.83109  0.81629  0.07972  1.0000
  H   H142      1.0  0.84353  0.84871  0.06897  1.0000
  H   H143      1.0  0.82380  0.85223  0.11182  1.0000
  O   O35       1.0  0.85043  0.81254  0.20769  1.0000
  C   C274      1.0  0.17877  0.63249  0.30244  1.0000
  C   C275      1.0  0.14711  0.61240  0.31889  1.0000
  N   N134      1.0  0.15094  0.63711  0.26926  1.0000
  C   C276      1.0  0.16602  0.64765  0.25731  1.0000
  C   C277      1.0  0.16776  0.67281  0.20223  1.0000
  C   C278      1.0  0.17739  0.67213  0.12130  1.0000
  H   H144      1.0  0.18602  0.69069  0.12308  1.0000
  H   H145      1.0  0.16976  0.67491  0.06233  1.0000
  H   H146      1.0  0.18396  0.65085  0.11405  1.0000
  O   O36       1.0  0.15889  0.69456  0.21366  1.0000
  N   N135      1.0  0.17409  0.89964  0.32215  1.0000
  C   C279      1.0  0.15883  0.90955  0.31013  1.0000
  H   H147      1.0  0.15644  0.92512  0.26103  1.0000
  N   N136      1.0  0.83462  0.60701  0.32252  1.0000
  C   C280      1.0  0.84987  0.59698  0.31063  1.0000
  H   H148      1.0  0.85231  0.58198  0.26010  1.0000
  N   N137      1.0  0.07688  0.64397  0.33211  1.0000
  C   C281      1.0  0.06623  0.66764  0.33109  1.0000
  H   H149      1.0  0.05425  0.66315  0.33153  1.0000
  N   N138      1.0  0.93188  0.86175  0.32786  1.0000
  C   C282      1.0  0.94250  0.83804  0.32724  1.0000
  H   H150      1.0  0.95448  0.84249  0.32819  1.0000
  C   C283      1.0  0.91556  0.64746  0.33351  1.0000
  C   C284      1.0  0.93651  0.69869  0.33220  1.0000
  N   N139      1.0  0.92041  0.70124  0.32736  1.0000
  C   C285      1.0  0.90974  0.67800  0.32776  1.0000
  C   C286      1.0  0.89394  0.68669  0.31699  1.0000
  C   C287      1.0  0.88799  0.69126  0.22649  1.0000
  H   H151      1.0  0.89120  0.67215  0.18333  1.0000
  H   H152      1.0  0.89292  0.71203  0.19769  1.0000
  H   H153      1.0  0.87496  0.69301  0.22709  1.0000
  O   O37       1.0  0.88873  0.70437  0.37338  1.0000
  C   C288      1.0  0.09319  0.85843  0.32852  1.0000
  C   C289      1.0  0.07236  0.80703  0.32678  1.0000
  N   N140      1.0  0.08847  0.80458  0.32188  1.0000
  C   C290      1.0  0.09907  0.82793  0.32214  1.0000
  C   C291      1.0  0.11490  0.81943  0.31021  1.0000
  C   C292      1.0  0.12064  0.81577  0.21896  1.0000
  H   H154      1.0  0.11739  0.83533  0.17771  1.0000
  H   H155      1.0  0.11560  0.79533  0.18866  1.0000
  H   H156      1.0  0.13366  0.81390  0.21861  1.0000
  O   O38       1.0  0.12013  0.80146  0.36568  1.0000
  N   N141      1.0  0.57728  0.89295  0.33471  1.0000
  C   C293      1.0  0.56656  0.91653  0.33312  1.0000
  H   H157      1.0  0.55460  0.91191  0.33479  1.0000
  N   N142      1.0  0.43148  0.61240  0.33196  1.0000
  C   C294      1.0  0.44218  0.58878  0.33057  1.0000
  H   H158      1.0  0.45413  0.59337  0.33275  1.0000
  C   C295      1.0  0.41632  0.89734  0.32579  1.0000
  C   C296      1.0  0.43697  0.94903  0.33015  1.0000
  N   N143      1.0  0.42106  0.95115  0.31583  1.0000
  C   C297      1.0  0.41057  0.92768  0.31221  1.0000
  C   C298      1.0  0.39517  0.93604  0.28884  1.0000
  C   C299      1.0  0.39194  0.94011  0.19369  1.0000
  H   H159      1.0  0.39583  0.92028  0.15547  1.0000
  H   H160      1.0  0.39812  0.96015  0.16800  1.0000
  H   H161      1.0  0.37913  0.94298  0.18229  1.0000
  O   O39       1.0  0.38865  0.95433  0.33878  1.0000
  C   C300      1.0  0.59253  0.60812  0.32127  1.0000
  C   C301      1.0  0.57199  0.55629  0.32465  1.0000
  N   N144      1.0  0.58793  0.55424  0.31129  1.0000
  C   C302      1.0  0.59835  0.57782  0.30794  1.0000
  C   C303      1.0  0.61379  0.56960  0.28473  1.0000
  C   C304      1.0  0.61710  0.56609  0.18948  1.0000
  H   H162      1.0  0.61327  0.58616  0.15219  1.0000
  H   H163      1.0  0.61093  0.54624  0.16254  1.0000
  H   H164      1.0  0.62993  0.56325  0.17832  1.0000
  O   O40       1.0  0.62027  0.55103  0.33391  1.0000
  N   N145      1.0  0.09450  0.52038  0.33709  1.0000
  C   C305      1.0  0.09289  0.98922  0.33435  1.0000
  H   H165      1.0  0.08236  0.97989  0.31345  1.0000
  N   N146      1.0  0.91426  0.98564  0.33556  1.0000
  C   C306      1.0  0.91584  0.51681  0.33412  1.0000
  H   H166      1.0  0.92637  0.52627  0.31373  1.0000
  N   N147      1.0  0.59498  0.76947  0.34370  1.0000
  C   C307      1.0  0.59322  0.73833  0.34199  1.0000
  H   H167      1.0  0.58270  0.72913  0.32043  1.0000
  N   N148      1.0  0.41380  0.73606  0.34360  1.0000
  C   C308      1.0  0.41552  0.76721  0.34257  1.0000
  H   H168      1.0  0.42607  0.77651  0.32192  1.0000
  C   C309      1.0  0.02124  0.75423  0.32373  1.0000
  C   C310      1.0  0.98744  0.75239  0.32962  1.0000
  N   N149      1.0  0.99559  0.77715  0.30029  1.0000
  C   C311      1.0  0.01183  0.77949  0.29570  1.0000
  C   C312      1.0  0.01812  0.80548  0.25704  1.0000
  C   C313      1.0  0.02134  0.80442  0.16118  1.0000
  H   H169      1.0  0.02831  0.82424  0.14095  1.0000
  H   H170      1.0  0.01018  0.80423  0.12307  1.0000
  H   H171      1.0  0.02825  0.78425  0.14361  1.0000
  O   O41       1.0  0.01279  0.82962  0.28453  1.0000
  C   C314      1.0  0.52125  0.50351  0.32752  1.0000
  C   C315      1.0  0.48746  0.50297  0.33529  1.0000
  N   N150      1.0  0.49577  0.52719  0.30367  1.0000
  C   C316      1.0  0.51202  0.52891  0.29834  1.0000
  C   C317      1.0  0.51846  0.55428  0.25676  1.0000
  C   C318      1.0  0.52150  0.55251  0.16098  1.0000
  H   H172      1.0  0.52865  0.57193  0.13934  1.0000
  H   H173      1.0  0.51027  0.55252  0.12354  1.0000
  H   H174      1.0  0.52815  0.03196  0.14421  1.0000
  O   O42       1.0  0.51354  0.57871  0.28450  1.0000
  C   C319      1.0  0.31415  0.61117  0.33108  1.0000
  N   N151      1.0  0.29949  0.62510  0.33318  1.0000
  C   C320      1.0  0.28599  0.60913  0.35591  1.0000
  N   N152      1.0  0.28767  0.57930  0.37525  1.0000
  C   C321      1.0  0.30190  0.56502  0.37489  1.0000
  N   N153      1.0  0.31491  0.58130  0.35219  1.0000
  C   C322      1.0  0.69459  0.89487  0.33388  1.0000
  N   N154      1.0  0.70925  0.88098  0.33551  1.0000
  C   C323      1.0  0.72277  0.89698  0.35785  1.0000
  N   N155      1.0  0.72111  0.92682  0.37707  1.0000
  C   C324      1.0  0.70686  0.94107  0.37707  1.0000
  N   N156      1.0  0.69384  0.92475  0.35488  1.0000
  C   C325      1.0  0.69438  0.61363  0.35977  1.0000
  N   N157      1.0  0.70869  0.62864  0.35444  1.0000
  C   C326      1.0  0.72272  0.61273  0.35697  1.0000
  N   N158      1.0  0.72230  0.58242  0.36934  1.0000
  C   C327      1.0  0.70846  0.56712  0.37797  1.0000
  N   N159      1.0  0.69475  0.58306  0.37131  1.0000
  C   C328      1.0  0.31441  0.89241  0.36150  1.0000
  N   N160      1.0  0.30010  0.87742  0.35618  1.0000
  C   C329      1.0  0.28607  0.89335  0.35877  1.0000
  N   N161      1.0  0.28650  0.92366  0.37095  1.0000
  C   C330      1.0  0.30034  0.93896  0.37941  1.0000
  N   N162      1.0  0.31405  0.92299  0.37279  1.0000
  C   C331      1.0  0.81480  0.86004  0.31435  1.0000
  N   N163      1.0  0.80020  0.87416  0.31447  1.0000
  C   C332      1.0  0.78651  0.85768  0.32853  1.0000
  N   N164      1.0  0.78780  0.82769  0.34670  1.0000
  C   C333      1.0  0.80207  0.81361  0.34926  1.0000
  N   N165      1.0  0.81529  0.82995  0.33240  1.0000
  C   C334      1.0  0.19394  0.64619  0.31568  1.0000
  N   N166      1.0  0.20855  0.63211  0.31567  1.0000
  C   C335      1.0  0.22225  0.64867  0.32847  1.0000
  N   N167      1.0  0.22096  0.67871  0.34563  1.0000
  C   C336      1.0  0.20669  0.69279  0.34822  1.0000
  N   N168      1.0  0.19344  0.67636  0.33254  1.0000
  C   C337      1.0  0.19360  0.86491  0.38055  1.0000
  N   N169      1.0  0.20800  0.87970  0.37886  1.0000
  C   C338      1.0  0.22193  0.86336  0.38145  1.0000
  N   N170      1.0  0.22120  0.83277  0.38420  1.0000
  C   C339      1.0  0.20718  0.81784  0.38445  1.0000
  N   N171      1.0  0.19359  0.83415  0.38146  1.0000
  C   C340      1.0  0.81511  0.64142  0.38249  1.0000
  N   N172      1.0  0.80065  0.62685  0.38047  1.0000
  C   C341      1.0  0.78678  0.64336  0.38383  1.0000
  N   N173      1.0  0.78765  0.67393  0.38741  1.0000
  C   C342      1.0  0.80172  0.68867  0.38812  1.0000
  N   N174      1.0  0.81525  0.67218  0.38445  1.0000
  C   C343      1.0  0.10333  0.62075  0.33240  1.0000
  N   N175      1.0  0.09904  0.59057  0.34292  1.0000
  C   C344      1.0  0.11028  0.56766  0.35041  1.0000
  N   N176      1.0  0.12578  0.57650  0.34223  1.0000
  C   C345      1.0  0.13080  0.60499  0.32853  1.0000
  N   N177      1.0  0.11925  0.62618  0.32409  1.0000
  C   C346      1.0  0.90546  0.88512  0.32782  1.0000
  N   N178      1.0  0.90976  0.91527  0.33905  1.0000
  C   C347      1.0  0.89853  0.93821  0.34670  1.0000
  N   N179      1.0  0.88304  0.92940  0.33797  1.0000
  C   C348      1.0  0.87801  0.90097  0.32348  1.0000
  N   N180      1.0  0.88954  0.87974  0.31902  1.0000
  C   C349      1.0  0.90565  0.62106  0.33809  1.0000
  N   N181      1.0  0.91054  0.59103  0.33872  1.0000
  C   C350      1.0  0.89981  0.56736  0.34663  1.0000
  N   N182      1.0  0.88406  0.57528  0.35141  1.0000
  C   C351      1.0  0.87859  0.60384  0.35032  1.0000
  N   N183      1.0  0.88965  0.62594  0.34569  1.0000
  C   C352      1.0  0.10303  0.88488  0.33422  1.0000
  N   N184      1.0  0.09813  0.91490  0.33603  1.0000
  C   C353      1.0  0.10884  0.93856  0.34529  1.0000
  N   N185      1.0  0.12458  0.93063  0.35013  1.0000
  C   C354      1.0  0.13008  0.90211  0.34793  1.0000
  N   N186      1.0  0.11903  0.88002  0.34210  1.0000
  C   C355      1.0  0.60382  0.86981  0.33526  1.0000
  N   N187      1.0  0.59958  0.83962  0.34679  1.0000
  C   C356      1.0  0.61080  0.81669  0.35575  1.0000
  N   N188      1.0  0.62631  0.82560  0.34836  1.0000
  C   C357      1.0  0.63134  0.85406  0.33376  1.0000
  N   N189      1.0  0.61978  0.87524  0.32782  1.0000
  C   C358      1.0  0.40496  0.63563  0.33261  1.0000
  N   N190      1.0  0.40922  0.66579  0.34481  1.0000
  C   C359      1.0  0.39801  0.68874  0.35416  1.0000
  N   N191      1.0  0.38251  0.67985  0.34646  1.0000
  C   C360      1.0  0.37746  0.65143  0.33125  1.0000
  N   N192      1.0  0.38900  0.63024  0.32494  1.0000
  C   C361      1.0  0.40634  0.87107  0.33214  1.0000
  N   N193      1.0  0.41087  0.84102  0.34094  1.0000
  C   C362      1.0  0.39985  0.81802  0.35330  1.0000
  N   N194      1.0  0.38415  0.82661  0.35594  1.0000
  C   C363      1.0  0.37891  0.85525  0.34595  1.0000
  N   N195      1.0  0.39037  0.87642  0.33471  1.0000
  C   C364      1.0  0.60245  0.63445  0.32860  1.0000
  N   N196      1.0  0.59788  0.66447  0.33810  1.0000
  C   C365      1.0  0.60886  0.68747  0.35156  1.0000
  N   N197      1.0  0.62456  0.67892  0.35430  1.0000
  C   C366      1.0  0.62984  0.65035  0.34366  1.0000
  N   N198      1.0  0.61842  0.62917  0.33153  1.0000
  C   C367      1.0  0.06327  0.77988  0.32691  1.0000
  N   N199      1.0  0.04704  0.77948  0.32626  1.0000
  C   C368      1.0  0.03833  0.75328  0.32568  1.0000
  N   N200      1.0  0.04652  0.72637  0.32763  1.0000
  C   C369      1.0  0.06282  0.72515  0.32848  1.0000
  N   N201      1.0  0.07067  0.75233  0.32767  1.0000
  C   C370      1.0  0.94565  0.72579  0.33149  1.0000
  N   N202      1.0  0.96191  0.72626  0.33278  1.0000
  C   C371      1.0  0.97043  0.75270  0.33054  1.0000
  N   N203      1.0  0.96217  0.77950  0.32756  1.0000
  C   C372      1.0  0.94588  0.78055  0.32729  1.0000
  N   N204      1.0  0.93815  0.75327  0.32885  1.0000
  C   C373      1.0  0.56318  0.52885  0.32680  1.0000
  N   N205      1.0  0.54699  0.52831  0.32851  1.0000
  C   C374      1.0  0.53834  0.50210  0.32862  1.0000
  N   N206      1.0  0.54657  0.97520  0.32978  1.0000
  C   C375      1.0  0.56291  0.97406  0.32869  1.0000
  N   N207      1.0  0.57068  0.50135  0.32638  1.0000
  C   C376      1.0  0.44581  0.97645  0.33190  1.0000
  N   N208      1.0  0.46203  0.97713  0.33614  1.0000
  C   C377      1.0  0.47046  0.00363  0.33531  1.0000
  N   N209      1.0  0.46213  0.53038  0.33126  1.0000
  C   C378      1.0  0.44582  0.53128  0.32862  1.0000
  N   N210      1.0  0.43820  0.00384  0.32818  1.0000
  N   N211      1.0  0.24191  0.61420  0.38091  1.0000
  C   C379      1.0  0.25713  0.60465  0.39427  1.0000
  H   H175      1.0  0.25897  0.58672  0.43655  1.0000
  N   N212      1.0  0.76687  0.89200  0.38180  1.0000
  C   C380      1.0  0.75166  0.90147  0.39565  1.0000
  H   H176      1.0  0.74982  0.91927  0.43843  1.0000
  C   C381      1.0  0.77100  0.63225  0.38428  1.0000
  C   C382      1.0  0.73823  0.62464  0.35600  1.0000
  N   N213      1.0  0.74394  0.63590  0.43432  1.0000
  C   C383      1.0  0.75970  0.64101  0.45111  1.0000
  C   C384      1.0  0.76400  0.65321  0.53370  1.0000
  C   C385      1.0  0.77135  0.63346  0.59979  1.0000
  H   H177      1.0  0.78122  0.62063  0.57044  1.0000
  H   H178      1.0  0.76257  0.61752  0.62655  1.0000
  H   H179      1.0  0.77619  0.64684  0.65539  1.0000
  O   O43       1.0  0.75480  0.67206  0.56522  1.0000
  C   C386      1.0  0.23766  0.87469  0.38262  1.0000
  C   C387      1.0  0.27055  0.88150  0.35719  1.0000
  N   N214      1.0  0.26450  0.87154  0.43631  1.0000
  C   C388      1.0  0.24866  0.86682  0.45188  1.0000
  C   C389      1.0  0.24399  0.85565  0.53522  1.0000
  C   C390      1.0  0.23656  0.87647  0.59800  1.0000
  H   H180      1.0  0.22686  0.88909  0.56618  1.0000
  H   H181      1.0  0.24537  0.89257  0.62368  1.0000
  H   H182      1.0  0.23149  0.86395  0.65466  1.0000
  O   O44       1.0  0.25295  0.83681  0.56866  1.0000
  C   C391      1.0  0.30055  0.97063  0.38925  1.0000
  C   C392      1.0  0.30247  0.53355  0.38648  1.0000
  N   N215      1.0  0.28907  0.51904  0.41453  1.0000
  C   C393      1.0  0.28742  0.98849  0.41872  1.0000
  C   C394      1.0  0.27323  0.97687  0.45239  1.0000
  C   C395      1.0  0.27298  0.96879  0.54693  1.0000
  H   H183      1.0  0.26216  0.95593  0.56247  1.0000
  H   H184      1.0  0.27320  0.98916  0.58877  1.0000
  H   H185      1.0  0.28322  0.95459  0.56432  1.0000
  O   O45       1.0  0.26090  0.98827  0.42379  1.0000
  C   C396      1.0  0.70825  0.53548  0.38860  1.0000
  C   C397      1.0  0.70629  0.97256  0.38810  1.0000
  N   N216      1.0  0.71971  0.98715  0.41562  1.0000
  C   C398      1.0  0.72137  0.51772  0.41869  1.0000
  C   C399      1.0  0.73555  0.52948  0.45230  1.0000
  C   C400      1.0  0.73592  0.53807  0.54626  1.0000
  H   H186      1.0  0.74675  0.55106  0.56064  1.0000
  H   H187      1.0  0.73578  0.51792  0.58902  1.0000
  H   H188      1.0  0.72568  0.55231  0.56338  1.0000
  O   O46       1.0  0.74779  0.51809  0.42244  1.0000
  C   C401      1.0  0.80217  0.72033  0.38827  1.0000
  C   C402      1.0  0.80291  0.78250  0.36426  1.0000
  N   N217      1.0  0.79152  0.76928  0.41582  1.0000
  C   C403      1.0  0.79061  0.73900  0.43083  1.0000
  C   C404      1.0  0.77951  0.72852  0.49258  1.0000
  C   C405      1.0  0.78515  0.72526  0.58445  1.0000
  H   H189      1.0  0.79580  0.71096  0.58698  1.0000
  H   H190      1.0  0.77602  0.71459  0.62635  1.0000
  H   H191      1.0  0.78802  0.74740  0.61327  1.0000
  O   O47       1.0  0.76593  0.73852  0.48490  1.0000
  C   C406      1.0  0.20678  0.78618  0.38457  1.0000
  C   C407      1.0  0.20592  0.72396  0.36226  1.0000
  N   N218      1.0  0.21732  0.73726  0.41357  1.0000
  C   C408      1.0  0.21829  0.76758  0.42775  1.0000
  C   C409      1.0  0.22935  0.77818  0.48963  1.0000
  C   C410      1.0  0.22362  0.78160  0.58128  1.0000
  H   H192      1.0  0.21299  0.79597  0.58332  1.0000
  H   H193      1.0  0.23273  0.79227  0.62336  1.0000
  H   H194      1.0  0.22069  0.75952  0.61029  1.0000
  O   O48       1.0  0.24293  0.76816  0.48247  1.0000
  N   N219      1.0  0.33341  0.64965  0.36174  1.0000
  C   C411      1.0  0.34862  0.66049  0.36610  1.0000
  H   H195      1.0  0.35096  0.67866  0.40643  1.0000
  N   N220      1.0  0.67541  0.85607  0.36362  1.0000
  C   C412      1.0  0.66025  0.84503  0.36763  1.0000
  H   H196      1.0  0.65797  0.82666  0.40731  1.0000
  C   C413      1.0  0.67886  0.62655  0.35272  1.0000
  C   C414      1.0  0.64631  0.64278  0.34458  1.0000
  N   N221      1.0  0.65777  0.66251  0.37372  1.0000
  C   C415      1.0  0.67377  0.65607  0.37820  1.0000
  C   C416      1.0  0.68407  0.67722  0.41491  1.0000
  C   C417      1.0  0.68695  0.67606  0.51099  1.0000
  H   H197      1.0  0.69006  0.65308  0.53220  1.0000
  H   H198      1.0  0.67636  0.68338  0.54796  1.0000
  H   H199      1.0  0.69692  0.69091  0.52883  1.0000
  O   O49       1.0  0.68296  0.70285  0.38379  1.0000
  C   C418      1.0  0.32993  0.87942  0.35466  1.0000
  C   C419      1.0  0.36245  0.86293  0.34670  1.0000
  N   N222      1.0  0.35095  0.84329  0.37573  1.0000
  C   C420      1.0  0.33495  0.84986  0.38014  1.0000
  C   C421      1.0  0.32458  0.82877  0.41673  1.0000
  C   C422      1.0  0.32183  0.82999  0.51285  1.0000
  H   H200      1.0  0.31875  0.85298  0.53416  1.0000
  H   H201      1.0  0.33247  0.82265  0.54940  1.0000
  H   H202      1.0  0.31188  0.81515  0.53105  1.0000
  O   O50       1.0  0.32560  0.80333  0.38422  1.0000
  N   N223      1.0  0.83386  0.89879  0.34807  1.0000
  C   C423      1.0  0.84898  0.90994  0.35410  1.0000
  H   H203      1.0  0.85105  0.92843  0.39366  1.0000
  N   N224      1.0  0.17499  0.60741  0.35139  1.0000
  C   C424      1.0  0.15989  0.59620  0.35834  1.0000
  H   H204      1.0  0.15787  0.57783  0.39852  1.0000
  C   C425      1.0  0.17823  0.87841  0.38443  1.0000
  C   C426      1.0  0.14640  0.89570  0.35942  1.0000
  N   N225      1.0  0.15056  0.87514  0.42277  1.0000
  C   C427      1.0  0.16581  0.86623  0.43933  1.0000
  C   C428      1.0  0.16845  0.84611  0.50977  1.0000
  C   C429      1.0  0.17497  0.85853  0.59237  1.0000
  H   H205      1.0  0.17866  0.84020  0.63730  1.0000
  H   H206      1.0  0.16602  0.87235  0.62672  1.0000
  H   H207      1.0  0.18547  0.87253  0.57898  1.0000
  O   O51       1.0  0.15865  0.82575  0.51971  1.0000
  C   C430      1.0  0.83042  0.62767  0.38632  1.0000
  C   C431      1.0  0.86226  0.61027  0.36160  1.0000
  N   N226      1.0  0.85804  0.63031  0.42632  1.0000
  C   C432      1.0  0.84278  0.63922  0.44279  1.0000
  C   C433      1.0  0.84006  0.65879  0.51448  1.0000
  C   C434      1.0  0.83325  0.64582  0.59558  1.0000
  H   H208      1.0  0.82953  0.66383  0.64153  1.0000
  H   H209      1.0  0.84203  0.63154  0.62966  1.0000
  H   H210      1.0  0.82271  0.63214  0.58029  1.0000
  O   O52       1.0  0.84993  0.67887  0.52676  1.0000
  C   C435      1.0  0.09317  0.64690  0.33124  1.0000
  C   C436      1.0  0.07189  0.69791  0.32964  1.0000
  N   N227      1.0  0.08801  0.70063  0.33011  1.0000
  C   C437      1.0  0.09881  0.67765  0.33043  1.0000
  C   C438      1.0  0.11460  0.68710  0.33599  1.0000
  C   C439      1.0  0.12093  0.69468  0.42382  1.0000
  H   H211      1.0  0.11810  0.67697  0.47263  1.0000
  H   H212      1.0  0.11596  0.71617  0.44742  1.0000
  H   H213      1.0  0.13393  0.69676  0.42052  1.0000
  O   O53       1.0  0.11924  0.70277  0.27323  1.0000
  C   C440      1.0  0.91559  0.85890  0.32677  1.0000
  C   C441      1.0  0.93681  0.80779  0.32636  1.0000
  N   N228      1.0  0.92069  0.80511  0.32645  1.0000
  C   C442      1.0  0.90991  0.82816  0.32613  1.0000
  C   C443      1.0  0.89411  0.81880  0.33135  1.0000
  C   C444      1.0  0.88780  0.81184  0.41986  1.0000
  H   H214      1.0  0.89061  0.82994  0.46752  1.0000
  H   H215      1.0  0.89280  0.79057  0.44492  1.0000
  H   H216      1.0  0.87480  0.80968  0.41684  1.0000
  O   O54       1.0  0.88943  0.80234  0.27055  1.0000
  N   N229      1.0  0.93183  0.64476  0.33698  1.0000
  C   C445      1.0  0.94234  0.66857  0.33618  1.0000
  H   H217      1.0  0.95432  0.66428  0.33950  1.0000
  N   N230      1.0  0.07691  0.86099  0.33172  1.0000
  C   C446      1.0  0.06646  0.83710  0.33034  1.0000
  H   H218      1.0  0.05447  0.84128  0.33371  1.0000
  C   C447      1.0  0.59358  0.89592  0.33270  1.0000
  C   C448      1.0  0.57210  0.94688  0.32984  1.0000
  N   N231      1.0  0.58822  0.94966  0.32887  1.0000
  C   C449      1.0  0.59910  0.92674  0.32975  1.0000
  C   C450      1.0  0.61488  0.93631  0.33277  1.0000
  C   C451      1.0  0.62138  0.94444  0.41997  1.0000
  H   H219      1.0  0.61874  0.92693  0.46979  1.0000
  H   H220      1.0  0.61638  0.96596  0.44305  1.0000
  H   H221      1.0  0.63436  0.94669  0.41572  1.0000
  O   O55       1.0  0.61937  0.95206  0.26987  1.0000
  C   C452      1.0  0.41519  0.60948  0.32980  1.0000
  C   C453      1.0  0.43662  0.55844  0.32771  1.0000
  N   N232      1.0  0.42049  0.55568  0.32646  1.0000
  C   C454      1.0  0.40964  0.57866  0.32664  1.0000
  C   C455      1.0  0.39385  0.56915  0.33024  1.0000
  C   C456      1.0  0.38731  0.56078  0.41697  1.0000
  H   H222      1.0  0.39001  0.57806  0.46736  1.0000
  H   H223      1.0  0.39224  0.53910  0.43928  1.0000
  H   H224      1.0  0.37433  0.55871  0.41251  1.0000
  O   O56       1.0  0.38940  0.55398  0.26599  1.0000
  N   N233      1.0  0.43247  0.89505  0.33802  1.0000
  C   C457      1.0  0.44287  0.91908  0.33932  1.0000
  H   H225      1.0  0.45475  0.91513  0.34968  1.0000
  N   N234      1.0  0.57635  0.61031  0.33245  1.0000
  C   C458      1.0  0.56600  0.58621  0.33288  1.0000
  H   H226      1.0  0.55410  0.59007  0.34280  1.0000
  C   C459      1.0  0.10824  0.53558  0.36027  1.0000
  C   C460      1.0  0.10632  0.97052  0.35137  1.0000
  N   N235      1.0  0.11926  0.98628  0.37983  1.0000
  C   C461      1.0  0.12116  0.51647  0.38746  1.0000
  C   C462      1.0  0.13544  0.52525  0.42758  1.0000
  C   C463      1.0  0.13564  0.52888  0.52431  1.0000
  H   H227      1.0  0.14666  0.54013  0.54536  1.0000
  H   H228      1.0  0.13494  0.50680  0.55741  1.0000
  H   H229      1.0  0.12562  0.54285  0.54659  1.0000
  O   O57       1.0  0.14762  0.51497  0.39353  1.0000
  C   C464      1.0  0.90052  0.97026  0.35779  1.0000
  C   C465      1.0  0.90236  0.53539  0.35141  1.0000
  N   N236      1.0  0.88942  0.51945  0.37887  1.0000
  C   C466      1.0  0.88756  0.98923  0.38546  1.0000
  C   C467      1.0  0.87324  0.98026  0.42456  1.0000
  C   C468      1.0  0.87313  0.97609  0.52126  1.0000
  H   H230      1.0  0.86209  0.96483  0.54216  1.0000
  H   H231      1.0  0.87393  0.99796  0.55549  1.0000
  H   H232      1.0  0.88312  0.96187  0.54257  1.0000
  O   O58       1.0  0.86100  0.99103  0.39257  1.0000
  C   C469      1.0  0.60876  0.78460  0.36642  1.0000
  C   C470      1.0  0.60657  0.71945  0.35960  1.0000
  N   N237      1.0  0.61962  0.73504  0.38733  1.0000
  C   C471      1.0  0.62161  0.76530  0.39396  1.0000
  C   C472      1.0  0.63595  0.77407  0.43303  1.0000
  C   C473      1.0  0.63638  0.77817  0.52963  1.0000
  H   H233      1.0  0.64747  0.78945  0.54955  1.0000
  H   H234      1.0  0.63570  0.75627  0.56374  1.0000
  H   H235      1.0  0.62643  0.79232  0.55198  1.0000
  O   O59       1.0  0.64812  0.76341  0.39983  1.0000
  C   C474      1.0  0.40001  0.72083  0.36557  1.0000
  C   C475      1.0  0.40215  0.78602  0.36048  1.0000
  N   N238      1.0  0.38908  0.77032  0.38735  1.0000
  C   C476      1.0  0.38712  0.74003  0.39314  1.0000
  C   C477      1.0  0.37273  0.73113  0.43164  1.0000
  C   C478      1.0  0.37224  0.72741  0.52831  1.0000
  H   H236      1.0  0.36115  0.71619  0.54824  1.0000
  H   H237      1.0  0.37287  0.74945  0.56170  1.0000
  H   H238      1.0  0.38218  0.71337  0.55139  1.0000
  O   O60       1.0  0.36067  0.74152  0.39658  1.0000
  N   N239      1.0  0.01303  0.72922  0.35158  1.0000
  C   C479      1.0  0.99682  0.72716  0.35492  1.0000
  H   H239      1.0  0.99172  0.70752  0.37743  1.0000
  N   N240      1.0  0.51287  0.47901  0.35747  1.0000
  C   C480      1.0  0.49666  0.47760  0.36177  1.0000
  H   H240      1.0  0.49140  0.45829  0.38561  1.0000
