data_image0
_chemical_formula_structural       C8H3CHCHC3H3C2H2C8H3CHCHC3H3C2H2CHCHC4HCH2C4HCH2C2HC3H3CHCHC4HCH2C4HCH2C2HC3H3C2H2C2H2C16HCH3C4HCH2C2H2C2H2C16HCH3C4HCH2C7HCH2C2H2C2H2C4HCH2C5H3C4HCH3C4HCH3C7HCH2C2H2C2H2C4HCH2C5H3C4HCH3C4HCH3C8HC7HCH4C2H2C2H2C2H2C2H2C2H2C2H2C8HC7HCH4C8HC7HCH4C4HCH3C4HCH3C4HCH3C4HCH3C4HCH3C4HCH3C8HC7HCH4C2H2C2H2C2H2C2H2C2H2C2H2C8HC7HCH4C8HC7HCH4C4HCH3C4HCH3C4HCH3C4HCH3C4HCH3C4HCH3
_chemical_formula_sum              "C360 H216"
_cell_length_a       46.7014
_cell_length_b       46.7014
_cell_length_c       14.8159
_cell_angle_alpha    89.998
_cell_angle_beta     90.002
_cell_angle_gamma    120

_space_group_name_H-M_alt    "P 1"
_space_group_IT_number       1

loop_
  _space_group_symop_operation_xyz
  'x, y, z'

loop_
  _atom_site_type_symbol
  _atom_site_label
  _atom_site_symmetry_multiplicity
  _atom_site_fract_x
  _atom_site_fract_y
  _atom_site_fract_z
  _atom_site_occupancy
  C   C1        1.0  0.02752  0.26448  0.35506  1.0000
  C   C2        1.0  0.04525  0.29990  0.35340  1.0000
  C   C3        1.0  0.08040  0.31759  0.34722  1.0000
  C   C4        1.0  0.09704  0.29937  0.34444  1.0000
  C   C5        1.0  0.08058  0.26453  0.34821  1.0000
  C   C6        1.0  0.04539  0.24692  0.35359  1.0000
  C   C7        1.0  0.02696  0.31654  0.35376  1.0000
  C   C8        1.0  0.02723  0.21200  0.35381  1.0000
  H   H1        1.0  0.12244  0.31214  0.34173  1.0000
  H   H2        1.0  0.03873  0.34179  0.35187  1.0000
  H   H3        1.0  0.03909  0.19860  0.35183  1.0000
  C   C9        1.0  0.11945  0.25528  0.26365  1.0000
  H   H4        1.0  0.11261  0.26251  0.20613  1.0000
  C   C10       1.0  0.11978  0.36593  0.26209  1.0000
  H   H5        1.0  0.11334  0.35223  0.20399  1.0000
  C   C11       1.0  0.11419  0.24426  0.42526  1.0000
  C   C12       1.0  0.10144  0.25042  0.34455  1.0000
  C   C13       1.0  0.09832  0.24183  0.51432  1.0000
  H   H6        1.0  0.11063  0.23687  0.56974  1.0000
  H   H7        1.0  0.07271  0.22176  0.51282  1.0000
  H   H8        1.0  0.09873  0.26489  0.52953  1.0000
  C   C14       1.0  0.10093  0.35247  0.34129  1.0000
  C   C15       1.0  0.11319  0.37085  0.42199  1.0000
  H   H9        1.0  0.10149  0.36012  0.48133  1.0000
  H   H10       1.0  0.14006  0.40432  0.56968  1.0000
  C   C16       1.0  0.02752  0.76448  0.35506  1.0000
  C   C17       1.0  0.04525  0.79990  0.35340  1.0000
  C   C18       1.0  0.08040  0.81759  0.34722  1.0000
  C   C19       1.0  0.09704  0.79937  0.34444  1.0000
  C   C20       1.0  0.08058  0.76453  0.34821  1.0000
  C   C21       1.0  0.04539  0.74692  0.35359  1.0000
  C   C22       1.0  0.02696  0.81654  0.35376  1.0000
  C   C23       1.0  0.02723  0.71200  0.35381  1.0000
  H   H11       1.0  0.12244  0.81213  0.34173  1.0000
  H   H12       1.0  0.03873  0.84179  0.35187  1.0000
  H   H13       1.0  0.03909  0.69860  0.35183  1.0000
  C   C24       1.0  0.11945  0.75528  0.26365  1.0000
  H   H14       1.0  0.11261  0.76251  0.20613  1.0000
  C   C25       1.0  0.11978  0.86593  0.26209  1.0000
  H   H15       1.0  0.11334  0.85223  0.20399  1.0000
  C   C26       1.0  0.11419  0.74426  0.42526  1.0000
  C   C27       1.0  0.10144  0.75042  0.34455  1.0000
  C   C28       1.0  0.09832  0.74183  0.51432  1.0000
  H   H16       1.0  0.11063  0.73687  0.56974  1.0000
  H   H17       1.0  0.07271  0.72176  0.51282  1.0000
  H   H18       1.0  0.09873  0.76489  0.52953  1.0000
  C   C29       1.0  0.10093  0.85247  0.34129  1.0000
  C   C30       1.0  0.11319  0.87085  0.42199  1.0000
  H   H19       1.0  0.10149  0.86012  0.48133  1.0000
  H   H20       1.0  0.14006  0.90432  0.56968  1.0000
  C   C31       1.0  0.14949  0.25526  0.26254  1.0000
  H   H21       1.0  0.16330  0.26268  0.20466  1.0000
  C   C32       1.0  0.14980  0.39601  0.26351  1.0000
  H   H22       1.0  0.16385  0.40295  0.20596  1.0000
  C   C33       1.0  0.21543  0.24670  0.35362  1.0000
  C   C34       1.0  0.19774  0.26418  0.34770  1.0000
  C   C35       1.0  0.21597  0.29904  0.34519  1.0000
  C   C36       1.0  0.19878  0.21178  0.35383  1.0000
  H   H23       1.0  0.20321  0.31169  0.34266  1.0000
  C   C37       1.0  0.21618  0.19450  0.35362  1.0000
  H   H24       1.0  0.20278  0.16924  0.35152  1.0000
  H   H25       1.0  0.17353  0.19830  0.35194  1.0000
  C   C38       1.0  0.21623  0.41825  0.34463  1.0000
  C   C39       1.0  0.19788  0.43474  0.34830  1.0000
  C   C40       1.0  0.21549  0.46993  0.35364  1.0000
  C   C41       1.0  0.19876  0.48811  0.35382  1.0000
  H   H26       1.0  0.20356  0.39284  0.34196  1.0000
  C   C42       1.0  0.21606  0.02280  0.35383  1.0000
  H   H27       1.0  0.20258  0.03458  0.35179  1.0000
  H   H28       1.0  0.17350  0.47627  0.35179  1.0000
  C   C43       1.0  0.16287  0.24985  0.34196  1.0000
  C   C44       1.0  0.14432  0.24363  0.42236  1.0000
  H   H29       1.0  0.15497  0.24262  0.48180  1.0000
  C   C45       1.0  0.14395  0.40098  0.42515  1.0000
  C   C46       1.0  0.16292  0.41393  0.34459  1.0000
  C   C47       1.0  0.15735  0.41671  0.51437  1.0000
  H   H30       1.0  0.16292  0.44233  0.51317  1.0000
  H   H31       1.0  0.18000  0.41627  0.52948  1.0000
  H   H32       1.0  0.22525  0.15825  0.51186  1.0000
  C   C48       1.0  0.14949  0.75525  0.26254  1.0000
  H   H33       1.0  0.16330  0.76268  0.20466  1.0000
  C   C49       1.0  0.14980  0.89601  0.26351  1.0000
  H   H34       1.0  0.16385  0.90295  0.20596  1.0000
  C   C50       1.0  0.21543  0.74670  0.35362  1.0000
  C   C51       1.0  0.19774  0.76418  0.34770  1.0000
  C   C52       1.0  0.21597  0.79904  0.34519  1.0000
  C   C53       1.0  0.19878  0.71178  0.35383  1.0000
  H   H35       1.0  0.20321  0.81169  0.34266  1.0000
  C   C54       1.0  0.21618  0.69450  0.35362  1.0000
  H   H36       1.0  0.20278  0.66925  0.35152  1.0000
  H   H37       1.0  0.17353  0.69830  0.35194  1.0000
  C   C55       1.0  0.21623  0.91825  0.34463  1.0000
  C   C56       1.0  0.19788  0.93474  0.34830  1.0000
  C   C57       1.0  0.21549  0.96993  0.35364  1.0000
  C   C58       1.0  0.19876  0.98811  0.35382  1.0000
  H   H38       1.0  0.20356  0.89284  0.34196  1.0000
  C   C59       1.0  0.21606  0.52281  0.35383  1.0000
  H   H39       1.0  0.20258  0.53458  0.35179  1.0000
  H   H40       1.0  0.17350  0.97627  0.35179  1.0000
  C   C60       1.0  0.16287  0.74984  0.34196  1.0000
  C   C61       1.0  0.14432  0.74363  0.42236  1.0000
  H   H41       1.0  0.15497  0.74262  0.48180  1.0000
  C   C62       1.0  0.14395  0.90098  0.42515  1.0000
  C   C63       1.0  0.16292  0.91393  0.34459  1.0000
  C   C64       1.0  0.15736  0.91671  0.51437  1.0000
  H   H42       1.0  0.16292  0.94233  0.51317  1.0000
  H   H43       1.0  0.18000  0.91627  0.52948  1.0000
  H   H44       1.0  0.22525  0.65825  0.51186  1.0000
  C   C65       1.0  0.25981  0.36530  0.26387  1.0000
  C   C66       1.0  0.25978  0.39534  0.26237  1.0000
  H   H45       1.0  0.25252  0.35116  0.20648  1.0000
  H   H46       1.0  0.25227  0.40163  0.20446  1.0000
  C   C67       1.0  0.25981  0.14577  0.26346  1.0000
  C   C68       1.0  0.25984  0.11574  0.26209  1.0000
  H   H47       1.0  0.26717  0.15993  0.20610  1.0000
  H   H48       1.0  0.26747  0.10949  0.20433  1.0000
  C   C69       1.0  0.25085  0.26439  0.35519  1.0000
  C   C70       1.0  0.25083  0.31742  0.34853  1.0000
  C   C71       1.0  0.26842  0.29982  0.35376  1.0000
  C   C72       1.0  0.26868  0.24667  0.35507  1.0000
  C   C73       1.0  0.25111  0.21125  0.35350  1.0000
  C   C74       1.0  0.26869  0.19364  0.34805  1.0000
  C   C75       1.0  0.25092  0.48776  0.35515  1.0000
  C   C76       1.0  0.26859  0.47001  0.35355  1.0000
  C   C77       1.0  0.25109  0.43485  0.34725  1.0000
  C   C78       1.0  0.26865  0.02331  0.35513  1.0000
  C   C79       1.0  0.26847  0.07621  0.34703  1.0000
  C   C80       1.0  0.25098  0.04106  0.35345  1.0000
  C   C81       1.0  0.26541  0.41428  0.34155  1.0000
  C   C82       1.0  0.27181  0.40219  0.42209  1.0000
  C   C83       1.0  0.27129  0.37148  0.42524  1.0000
  C   C84       1.0  0.26498  0.35239  0.34485  1.0000
  H   H49       1.0  0.27308  0.41406  0.48134  1.0000
  C   C85       1.0  0.27395  0.35822  0.51434  1.0000
  H   H50       1.0  0.27897  0.37557  0.56957  1.0000
  H   H51       1.0  0.29406  0.35275  0.51262  1.0000
  H   H52       1.0  0.25095  0.33555  0.52995  1.0000
  C   C86       1.0  0.25415  0.09677  0.34128  1.0000
  C   C87       1.0  0.24757  0.10883  0.42161  1.0000
  C   C88       1.0  0.24812  0.13955  0.42469  1.0000
  C   C89       1.0  0.25454  0.15867  0.34434  1.0000
  H   H53       1.0  0.24630  0.09696  0.48088  1.0000
  C   C90       1.0  0.24537  0.15278  0.51374  1.0000
  H   H54       1.0  0.24030  0.13541  0.56897  1.0000
  H   H55       1.0  0.26834  0.17545  0.52950  1.0000
  C   C91       1.0  0.25981  0.86530  0.26387  1.0000
  C   C92       1.0  0.25978  0.89534  0.26237  1.0000
  H   H56       1.0  0.25252  0.85116  0.20648  1.0000
  H   H57       1.0  0.25227  0.90163  0.20446  1.0000
  C   C93       1.0  0.25981  0.64577  0.26346  1.0000
  C   C94       1.0  0.25985  0.61574  0.26209  1.0000
  H   H58       1.0  0.26717  0.65993  0.20610  1.0000
  H   H59       1.0  0.26747  0.60949  0.20433  1.0000
  C   C95       1.0  0.25085  0.76439  0.35519  1.0000
  C   C96       1.0  0.25082  0.81742  0.34853  1.0000
  C   C97       1.0  0.26842  0.79982  0.35376  1.0000
  C   C98       1.0  0.26868  0.74667  0.35507  1.0000
  C   C99       1.0  0.25111  0.71125  0.35350  1.0000
  C   C100      1.0  0.26869  0.69364  0.34805  1.0000
  C   C101      1.0  0.25092  0.98776  0.35515  1.0000
  C   C102      1.0  0.26858  0.97001  0.35355  1.0000
  C   C103      1.0  0.25109  0.93485  0.34725  1.0000
  C   C104      1.0  0.26865  0.52331  0.35513  1.0000
  C   C105      1.0  0.26847  0.57621  0.34703  1.0000
  C   C106      1.0  0.25098  0.54106  0.35345  1.0000
  C   C107      1.0  0.26541  0.91428  0.34155  1.0000
  C   C108      1.0  0.27181  0.90219  0.42209  1.0000
  C   C109      1.0  0.27129  0.87148  0.42524  1.0000
  C   C110      1.0  0.26498  0.85239  0.34485  1.0000
  H   H60       1.0  0.27309  0.91407  0.48134  1.0000
  C   C111      1.0  0.27395  0.85822  0.51434  1.0000
  H   H61       1.0  0.27897  0.87558  0.56957  1.0000
  H   H62       1.0  0.29406  0.85274  0.51262  1.0000
  H   H63       1.0  0.25095  0.83555  0.52995  1.0000
  C   C112      1.0  0.25415  0.59677  0.34128  1.0000
  C   C113      1.0  0.24757  0.60883  0.42161  1.0000
  C   C114      1.0  0.24812  0.63955  0.42469  1.0000
  C   C115      1.0  0.25454  0.65867  0.34434  1.0000
  H   H64       1.0  0.24630  0.59696  0.48088  1.0000
  C   C116      1.0  0.24537  0.65278  0.51374  1.0000
  H   H65       1.0  0.24030  0.63541  0.56897  1.0000
  H   H66       1.0  0.26834  0.67545  0.52950  1.0000
  C   C117      1.0  0.49198  0.24664  0.35513  1.0000
  C   C118      1.0  0.47411  0.26420  0.35369  1.0000
  C   C119      1.0  0.43892  0.24659  0.34848  1.0000
  C   C120      1.0  0.42245  0.21174  0.34502  1.0000
  C   C121      1.0  0.43909  0.19352  0.34764  1.0000
  C   C122      1.0  0.47425  0.21122  0.35359  1.0000
  C   C123      1.0  0.49227  0.29912  0.35385  1.0000
  H   H67       1.0  0.39704  0.19898  0.34246  1.0000
  C   C124      1.0  0.49254  0.19458  0.35391  1.0000
  H   H68       1.0  0.48042  0.31252  0.35184  1.0000
  H   H69       1.0  0.48078  0.16933  0.35210  1.0000
  C   C125      1.0  0.40012  0.25573  0.26375  1.0000
  C   C126      1.0  0.37005  0.25570  0.26220  1.0000
  H   H70       1.0  0.40703  0.24850  0.20637  1.0000
  H   H71       1.0  0.35630  0.24826  0.20422  1.0000
  C   C127      1.0  0.36981  0.11513  0.26372  1.0000
  C   C128      1.0  0.39982  0.14522  0.26242  1.0000
  H   H72       1.0  0.35576  0.10820  0.20618  1.0000
  H   H73       1.0  0.40626  0.15898  0.20442  1.0000
  C   C129      1.0  0.30334  0.31656  0.35383  1.0000
  C   C130      1.0  0.30354  0.21203  0.34453  1.0000
  C   C131      1.0  0.32178  0.24688  0.34721  1.0000
  C   C132      1.0  0.30410  0.26436  0.35343  1.0000
  H   H74       1.0  0.31630  0.19938  0.34187  1.0000
  C   C133      1.0  0.32075  0.29928  0.35385  1.0000
  H   H75       1.0  0.34600  0.31276  0.35185  1.0000
  H   H76       1.0  0.31675  0.34182  0.35185  1.0000
  C   C134      1.0  0.30351  0.48827  0.35400  1.0000
  C   C135      1.0  0.30407  0.04115  0.35369  1.0000
  C   C136      1.0  0.32169  0.07634  0.34831  1.0000
  C   C137      1.0  0.30333  0.09282  0.34452  1.0000
  C   C138      1.0  0.32081  0.02296  0.35398  1.0000
  H   H77       1.0  0.31599  0.11822  0.34182  1.0000
  H   H78       1.0  0.34606  0.03480  0.35198  1.0000
  H   H79       1.0  0.31698  0.47649  0.35207  1.0000
  C   C139      1.0  0.35666  0.26121  0.34137  1.0000
  C   C140      1.0  0.37506  0.26746  0.42206  1.0000
  C   C141      1.0  0.40523  0.26691  0.42530  1.0000
  C   C142      1.0  0.41810  0.26075  0.34487  1.0000
  H   H80       1.0  0.36440  0.26865  0.48131  1.0000
  C   C143      1.0  0.42107  0.26945  0.51445  1.0000
  H   H81       1.0  0.40869  0.27440  0.56970  1.0000
  H   H82       1.0  0.44666  0.28956  0.51296  1.0000
  H   H83       1.0  0.42073  0.24643  0.52986  1.0000
  C   C144      1.0  0.41856  0.15864  0.34180  1.0000
  C   C145      1.0  0.40631  0.14024  0.42245  1.0000
  C   C146      1.0  0.37556  0.11009  0.42542  1.0000
  C   C147      1.0  0.35665  0.09717  0.34475  1.0000
  H   H84       1.0  0.41797  0.15097  0.48184  1.0000
  C   C148      1.0  0.36212  0.09429  0.51454  1.0000
  H   H85       1.0  0.37937  0.10667  0.56995  1.0000
  H   H86       1.0  0.35661  0.06869  0.51325  1.0000
  H   H87       1.0  0.33944  0.09468  0.52958  1.0000
  C   C149      1.0  0.49198  0.74664  0.35513  1.0000
  C   C150      1.0  0.47411  0.76419  0.35369  1.0000
  C   C151      1.0  0.43892  0.74659  0.34848  1.0000
  C   C152      1.0  0.42245  0.71174  0.34502  1.0000
  C   C153      1.0  0.43909  0.69352  0.34764  1.0000
  C   C154      1.0  0.47425  0.71122  0.35359  1.0000
  C   C155      1.0  0.49227  0.79912  0.35385  1.0000
  H   H88       1.0  0.39705  0.69898  0.34246  1.0000
  C   C156      1.0  0.49254  0.69458  0.35391  1.0000
  H   H89       1.0  0.48042  0.81252  0.35184  1.0000
  H   H90       1.0  0.48078  0.66933  0.35210  1.0000
  C   C157      1.0  0.40012  0.75573  0.26375  1.0000
  C   C158      1.0  0.37005  0.75570  0.26220  1.0000
  H   H91       1.0  0.40703  0.74850  0.20637  1.0000
  H   H92       1.0  0.35630  0.74826  0.20422  1.0000
  C   C159      1.0  0.36981  0.61512  0.26372  1.0000
  C   C160      1.0  0.39982  0.64522  0.26242  1.0000
  H   H93       1.0  0.35576  0.60820  0.20618  1.0000
  H   H94       1.0  0.40626  0.65898  0.20442  1.0000
  C   C161      1.0  0.30334  0.81656  0.35383  1.0000
  C   C162      1.0  0.30354  0.71203  0.34453  1.0000
  C   C163      1.0  0.32178  0.74688  0.34721  1.0000
  C   C164      1.0  0.30410  0.76436  0.35343  1.0000
  H   H95       1.0  0.31630  0.69938  0.34187  1.0000
  C   C165      1.0  0.32075  0.79928  0.35385  1.0000
  H   H96       1.0  0.34600  0.81276  0.35185  1.0000
  H   H97       1.0  0.31675  0.84182  0.35185  1.0000
  C   C166      1.0  0.30351  0.98827  0.35400  1.0000
  C   C167      1.0  0.30408  0.54115  0.35369  1.0000
  C   C168      1.0  0.32169  0.57634  0.34831  1.0000
  C   C169      1.0  0.30333  0.59282  0.34452  1.0000
  C   C170      1.0  0.32081  0.52296  0.35398  1.0000
  H   H98       1.0  0.31599  0.61822  0.34182  1.0000
  H   H99       1.0  0.34606  0.53480  0.35198  1.0000
  H   H100      1.0  0.31698  0.97649  0.35207  1.0000
  C   C171      1.0  0.35666  0.76122  0.34137  1.0000
  C   C172      1.0  0.37506  0.76745  0.42206  1.0000
  C   C173      1.0  0.40523  0.76691  0.42530  1.0000
  C   C174      1.0  0.41810  0.76075  0.34487  1.0000
  H   H101      1.0  0.36441  0.76865  0.48131  1.0000
  C   C175      1.0  0.42107  0.76945  0.51445  1.0000
  H   H102      1.0  0.40869  0.77440  0.56970  1.0000
  H   H103      1.0  0.44666  0.78956  0.51296  1.0000
  H   H104      1.0  0.42073  0.74643  0.52986  1.0000
  C   C176      1.0  0.41856  0.65864  0.34180  1.0000
  C   C177      1.0  0.40631  0.64024  0.42245  1.0000
  C   C178      1.0  0.37556  0.61009  0.42542  1.0000
  C   C179      1.0  0.35665  0.59717  0.34475  1.0000
  H   H105      1.0  0.41797  0.65096  0.48184  1.0000
  C   C180      1.0  0.36212  0.59429  0.51454  1.0000
  H   H106      1.0  0.37937  0.60667  0.56995  1.0000
  H   H107      1.0  0.35661  0.56869  0.51325  1.0000
  H   H108      1.0  0.33944  0.59467  0.52958  1.0000
  C   C181      1.0  0.52752  0.26448  0.35506  1.0000
  C   C182      1.0  0.54525  0.29990  0.35340  1.0000
  C   C183      1.0  0.58040  0.31759  0.34722  1.0000
  C   C184      1.0  0.59704  0.29937  0.34444  1.0000
  C   C185      1.0  0.58058  0.26453  0.34821  1.0000
  C   C186      1.0  0.54539  0.24692  0.35359  1.0000
  C   C187      1.0  0.52696  0.31654  0.35376  1.0000
  C   C188      1.0  0.52723  0.21200  0.35381  1.0000
  H   H109      1.0  0.62244  0.31214  0.34173  1.0000
  C   C189      1.0  0.99198  0.24664  0.35513  1.0000
  C   C190      1.0  0.97411  0.26420  0.35369  1.0000
  C   C191      1.0  0.93892  0.24659  0.34848  1.0000
  C   C192      1.0  0.92245  0.21174  0.34502  1.0000
  C   C193      1.0  0.93909  0.19352  0.34764  1.0000
  C   C194      1.0  0.97425  0.21122  0.35359  1.0000
  C   C195      1.0  0.99227  0.29912  0.35385  1.0000
  H   H110      1.0  0.89704  0.19898  0.34246  1.0000
  C   C196      1.0  0.99254  0.19458  0.35391  1.0000
  H   H111      1.0  0.98041  0.31252  0.35184  1.0000
  H   H112      1.0  0.53872  0.34179  0.35187  1.0000
  H   H113      1.0  0.98078  0.16933  0.35210  1.0000
  H   H114      1.0  0.53909  0.19860  0.35183  1.0000
  C   C197      1.0  0.61945  0.25528  0.26365  1.0000
  C   C198      1.0  0.64949  0.25526  0.26254  1.0000
  H   H115      1.0  0.61261  0.26251  0.20613  1.0000
  H   H116      1.0  0.66330  0.26268  0.20466  1.0000
  C   C199      1.0  0.75981  0.36530  0.26387  1.0000
  C   C200      1.0  0.75978  0.39534  0.26237  1.0000
  H   H117      1.0  0.75252  0.35116  0.20648  1.0000
  H   H118      1.0  0.75226  0.40163  0.20446  1.0000
  C   C201      1.0  0.64980  0.39601  0.26351  1.0000
  C   C202      1.0  0.61978  0.36593  0.26209  1.0000
  H   H119      1.0  0.66385  0.40295  0.20596  1.0000
  H   H120      1.0  0.61334  0.35223  0.20399  1.0000
  C   C203      1.0  0.90012  0.25573  0.26375  1.0000
  C   C204      1.0  0.87005  0.25570  0.26220  1.0000
  H   H121      1.0  0.90703  0.24850  0.20637  1.0000
  H   H122      1.0  0.85630  0.24826  0.20422  1.0000
  C   C205      1.0  0.75981  0.14577  0.26346  1.0000
  C   C206      1.0  0.75984  0.11574  0.26209  1.0000
  H   H123      1.0  0.76717  0.15993  0.20610  1.0000
  H   H124      1.0  0.76747  0.10949  0.20433  1.0000
  C   C207      1.0  0.86981  0.11513  0.26372  1.0000
  C   C208      1.0  0.89982  0.14522  0.26242  1.0000
  H   H125      1.0  0.85576  0.10820  0.20618  1.0000
  H   H126      1.0  0.90626  0.15898  0.20442  1.0000
  C   C209      1.0  0.75085  0.26439  0.35519  1.0000
  C   C210      1.0  0.71543  0.24670  0.35362  1.0000
  C   C211      1.0  0.69774  0.26418  0.34770  1.0000
  C   C212      1.0  0.71597  0.29904  0.34519  1.0000
  C   C213      1.0  0.75082  0.31742  0.34853  1.0000
  C   C214      1.0  0.76842  0.29982  0.35376  1.0000
  C   C215      1.0  0.69878  0.21178  0.35383  1.0000
  C   C216      1.0  0.80334  0.31656  0.35383  1.0000
  H   H127      1.0  0.70321  0.31169  0.34266  1.0000
  C   C217      1.0  0.76868  0.24667  0.35507  1.0000
  C   C218      1.0  0.75111  0.21125  0.35350  1.0000
  C   C219      1.0  0.76869  0.19364  0.34805  1.0000
  C   C220      1.0  0.80354  0.21203  0.34453  1.0000
  C   C221      1.0  0.82178  0.24688  0.34721  1.0000
  C   C222      1.0  0.80410  0.26436  0.35343  1.0000
  C   C223      1.0  0.71618  0.19450  0.35362  1.0000
  H   H128      1.0  0.81630  0.19938  0.34187  1.0000
  C   C224      1.0  0.82075  0.29928  0.35385  1.0000
  H   H129      1.0  0.70277  0.16924  0.35152  1.0000
  H   H130      1.0  0.67353  0.19830  0.35194  1.0000
  H   H131      1.0  0.84600  0.31276  0.35185  1.0000
  H   H132      1.0  0.81675  0.34182  0.35185  1.0000
  C   C225      1.0  0.75092  0.48776  0.35515  1.0000
  C   C226      1.0  0.76859  0.47001  0.35355  1.0000
  C   C227      1.0  0.75109  0.43485  0.34725  1.0000
  C   C228      1.0  0.71623  0.41825  0.34463  1.0000
  C   C229      1.0  0.69788  0.43474  0.34830  1.0000
  C   C230      1.0  0.71549  0.46993  0.35364  1.0000
  C   C231      1.0  0.80351  0.48827  0.35400  1.0000
  C   C232      1.0  0.69876  0.48811  0.35382  1.0000
  H   H133      1.0  0.70356  0.39284  0.34196  1.0000
  C   C233      1.0  0.76865  0.02331  0.35513  1.0000
  C   C234      1.0  0.80407  0.04115  0.35369  1.0000
  C   C235      1.0  0.82169  0.07634  0.34831  1.0000
  C   C236      1.0  0.80333  0.09282  0.34452  1.0000
  C   C237      1.0  0.76847  0.07621  0.34703  1.0000
  C   C238      1.0  0.75098  0.04106  0.35345  1.0000
  C   C239      1.0  0.82081  0.02296  0.35398  1.0000
  H   H134      1.0  0.81599  0.11822  0.34182  1.0000
  C   C240      1.0  0.71606  0.02280  0.35383  1.0000
  H   H135      1.0  0.84607  0.03480  0.35198  1.0000
  H   H136      1.0  0.81698  0.47649  0.35207  1.0000
  H   H137      1.0  0.70258  0.03458  0.35179  1.0000
  H   H138      1.0  0.67350  0.47627  0.35179  1.0000
  C   C241      1.0  0.66287  0.24985  0.34196  1.0000
  C   C242      1.0  0.64432  0.24363  0.42236  1.0000
  C   C243      1.0  0.61419  0.24426  0.42526  1.0000
  C   C244      1.0  0.60144  0.25042  0.34455  1.0000
  H   H139      1.0  0.65497  0.24262  0.48180  1.0000
  C   C245      1.0  0.59832  0.24183  0.51432  1.0000
  H   H140      1.0  0.61063  0.23687  0.56974  1.0000
  H   H141      1.0  0.57271  0.22176  0.51282  1.0000
  H   H142      1.0  0.59873  0.26489  0.52953  1.0000
  C   C246      1.0  0.76541  0.41428  0.34155  1.0000
  C   C247      1.0  0.77181  0.40219  0.42209  1.0000
  C   C248      1.0  0.77128  0.37148  0.42524  1.0000
  C   C249      1.0  0.76498  0.35239  0.34485  1.0000
  H   H143      1.0  0.77308  0.41406  0.48134  1.0000
  C   C250      1.0  0.77395  0.35822  0.51434  1.0000
  H   H144      1.0  0.77897  0.37557  0.56957  1.0000
  H   H145      1.0  0.79406  0.35275  0.51262  1.0000
  H   H146      1.0  0.75095  0.33555  0.52995  1.0000
  C   C251      1.0  0.60093  0.35247  0.34129  1.0000
  C   C252      1.0  0.61319  0.37085  0.42199  1.0000
  C   C253      1.0  0.64395  0.40098  0.42515  1.0000
  C   C254      1.0  0.66292  0.41393  0.34459  1.0000
  H   H147      1.0  0.60149  0.36012  0.48133  1.0000
  C   C255      1.0  0.65735  0.41671  0.51437  1.0000
  H   H148      1.0  0.64006  0.40432  0.56968  1.0000
  H   H149      1.0  0.66292  0.44233  0.51317  1.0000
  H   H150      1.0  0.68000  0.41627  0.52948  1.0000
  C   C256      1.0  0.85666  0.26121  0.34137  1.0000
  C   C257      1.0  0.87506  0.26746  0.42206  1.0000
  C   C258      1.0  0.90523  0.26691  0.42530  1.0000
  C   C259      1.0  0.91810  0.26075  0.34487  1.0000
  H   H151      1.0  0.86440  0.26865  0.48131  1.0000
  C   C260      1.0  0.92107  0.26945  0.51445  1.0000
  H   H152      1.0  0.90869  0.27440  0.56970  1.0000
  H   H153      1.0  0.94666  0.28956  0.51296  1.0000
  H   H154      1.0  0.92073  0.24643  0.52986  1.0000
  C   C261      1.0  0.75414  0.09677  0.34128  1.0000
  C   C262      1.0  0.74757  0.10883  0.42161  1.0000
  C   C263      1.0  0.74812  0.13955  0.42469  1.0000
  C   C264      1.0  0.75454  0.15867  0.34434  1.0000
  H   H155      1.0  0.74630  0.09696  0.48088  1.0000
  C   C265      1.0  0.74537  0.15278  0.51374  1.0000
  H   H156      1.0  0.74030  0.13541  0.56897  1.0000
  H   H157      1.0  0.72525  0.15825  0.51186  1.0000
  H   H158      1.0  0.76834  0.17545  0.52950  1.0000
  C   C266      1.0  0.91856  0.15864  0.34180  1.0000
  C   C267      1.0  0.90631  0.14024  0.42245  1.0000
  C   C268      1.0  0.87556  0.11009  0.42542  1.0000
  C   C269      1.0  0.85665  0.09717  0.34475  1.0000
  H   H159      1.0  0.91797  0.15097  0.48184  1.0000
  C   C270      1.0  0.86212  0.09429  0.51454  1.0000
  H   H160      1.0  0.87937  0.10667  0.56995  1.0000
  H   H161      1.0  0.85660  0.06869  0.51325  1.0000
  H   H162      1.0  0.83944  0.09468  0.52958  1.0000
  C   C271      1.0  0.52752  0.76448  0.35506  1.0000
  C   C272      1.0  0.54525  0.79990  0.35340  1.0000
  C   C273      1.0  0.58040  0.81759  0.34722  1.0000
  C   C274      1.0  0.59704  0.79937  0.34444  1.0000
  C   C275      1.0  0.58058  0.76453  0.34821  1.0000
  C   C276      1.0  0.54539  0.74692  0.35359  1.0000
  C   C277      1.0  0.52696  0.81654  0.35376  1.0000
  C   C278      1.0  0.52723  0.71200  0.35381  1.0000
  H   H163      1.0  0.62244  0.81213  0.34173  1.0000
  C   C279      1.0  0.99198  0.74664  0.35513  1.0000
  C   C280      1.0  0.97411  0.76419  0.35369  1.0000
  C   C281      1.0  0.93892  0.74659  0.34848  1.0000
  C   C282      1.0  0.92245  0.71174  0.34502  1.0000
  C   C283      1.0  0.93909  0.69352  0.34764  1.0000
  C   C284      1.0  0.97425  0.71122  0.35359  1.0000
  C   C285      1.0  0.99227  0.79912  0.35385  1.0000
  H   H164      1.0  0.89705  0.69898  0.34246  1.0000
  C   C286      1.0  0.99254  0.69458  0.35391  1.0000
  H   H165      1.0  0.98041  0.81252  0.35184  1.0000
  H   H166      1.0  0.53873  0.84179  0.35187  1.0000
  H   H167      1.0  0.98078  0.66933  0.35210  1.0000
  H   H168      1.0  0.53909  0.69860  0.35183  1.0000
  C   C287      1.0  0.61945  0.75528  0.26365  1.0000
  C   C288      1.0  0.64949  0.75525  0.26254  1.0000
  H   H169      1.0  0.61261  0.76251  0.20613  1.0000
  H   H170      1.0  0.66330  0.76268  0.20466  1.0000
  C   C289      1.0  0.75981  0.86530  0.26387  1.0000
  C   C290      1.0  0.75978  0.89534  0.26237  1.0000
  H   H171      1.0  0.75252  0.85116  0.20648  1.0000
  H   H172      1.0  0.75227  0.90163  0.20446  1.0000
  C   C291      1.0  0.64980  0.89601  0.26351  1.0000
  C   C292      1.0  0.61978  0.86593  0.26209  1.0000
  H   H173      1.0  0.66385  0.90295  0.20596  1.0000
  H   H174      1.0  0.61334  0.85223  0.20399  1.0000
  C   C293      1.0  0.90012  0.75573  0.26375  1.0000
  C   C294      1.0  0.87005  0.75570  0.26220  1.0000
  H   H175      1.0  0.90703  0.74850  0.20637  1.0000
  H   H176      1.0  0.85630  0.74826  0.20422  1.0000
  C   C295      1.0  0.75981  0.64577  0.26346  1.0000
  C   C296      1.0  0.75984  0.61574  0.26209  1.0000
  H   H177      1.0  0.76717  0.65993  0.20610  1.0000
  H   H178      1.0  0.76747  0.60949  0.20433  1.0000
  C   C297      1.0  0.86981  0.61512  0.26372  1.0000
  C   C298      1.0  0.89982  0.64522  0.26242  1.0000
  H   H179      1.0  0.85576  0.60820  0.20618  1.0000
  H   H180      1.0  0.90626  0.65898  0.20442  1.0000
  C   C299      1.0  0.75085  0.76439  0.35519  1.0000
  C   C300      1.0  0.71543  0.74670  0.35362  1.0000
  C   C301      1.0  0.69775  0.76418  0.34770  1.0000
  C   C302      1.0  0.71597  0.79904  0.34519  1.0000
  C   C303      1.0  0.75082  0.81742  0.34853  1.0000
  C   C304      1.0  0.76842  0.79982  0.35376  1.0000
  C   C305      1.0  0.69878  0.71178  0.35383  1.0000
  C   C306      1.0  0.80334  0.81656  0.35383  1.0000
  H   H181      1.0  0.70321  0.81169  0.34266  1.0000
  C   C307      1.0  0.76868  0.74667  0.35507  1.0000
  C   C308      1.0  0.75111  0.71125  0.35350  1.0000
  C   C309      1.0  0.76869  0.69364  0.34805  1.0000
  C   C310      1.0  0.80354  0.71203  0.34453  1.0000
  C   C311      1.0  0.82178  0.74688  0.34721  1.0000
  C   C312      1.0  0.80410  0.76436  0.35343  1.0000
  C   C313      1.0  0.71618  0.69450  0.35362  1.0000
  H   H182      1.0  0.81630  0.69938  0.34187  1.0000
  C   C314      1.0  0.82075  0.79928  0.35385  1.0000
  H   H183      1.0  0.70278  0.66925  0.35152  1.0000
  H   H184      1.0  0.67353  0.69830  0.35194  1.0000
  H   H185      1.0  0.84600  0.81276  0.35185  1.0000
  H   H186      1.0  0.81675  0.84182  0.35185  1.0000
  C   C315      1.0  0.75092  0.98776  0.35515  1.0000
  C   C316      1.0  0.76858  0.97001  0.35355  1.0000
  C   C317      1.0  0.75109  0.93485  0.34725  1.0000
  C   C318      1.0  0.71623  0.91825  0.34463  1.0000
  C   C319      1.0  0.69788  0.93474  0.34830  1.0000
  C   C320      1.0  0.71549  0.96993  0.35364  1.0000
  C   C321      1.0  0.80351  0.98827  0.35400  1.0000
  C   C322      1.0  0.69876  0.98811  0.35382  1.0000
  H   H187      1.0  0.70356  0.89284  0.34196  1.0000
  C   C323      1.0  0.76865  0.52331  0.35513  1.0000
  C   C324      1.0  0.80407  0.54115  0.35369  1.0000
  C   C325      1.0  0.82169  0.57634  0.34831  1.0000
  C   C326      1.0  0.80333  0.59282  0.34452  1.0000
  C   C327      1.0  0.76847  0.57621  0.34703  1.0000
  C   C328      1.0  0.75098  0.54106  0.35345  1.0000
  C   C329      1.0  0.82081  0.52296  0.35398  1.0000
  H   H188      1.0  0.81599  0.61822  0.34182  1.0000
  C   C330      1.0  0.71606  0.52281  0.35383  1.0000
  H   H189      1.0  0.84606  0.53480  0.35198  1.0000
  H   H190      1.0  0.81698  0.97649  0.35207  1.0000
  H   H191      1.0  0.70258  0.53458  0.35179  1.0000
  H   H192      1.0  0.67350  0.97627  0.35179  1.0000
  C   C331      1.0  0.66287  0.74984  0.34196  1.0000
  C   C332      1.0  0.64432  0.74363  0.42236  1.0000
  C   C333      1.0  0.61419  0.74426  0.42526  1.0000
  C   C334      1.0  0.60144  0.75042  0.34455  1.0000
  H   H193      1.0  0.65497  0.74262  0.48180  1.0000
  C   C335      1.0  0.59832  0.74183  0.51432  1.0000
  H   H194      1.0  0.61063  0.73687  0.56974  1.0000
  H   H195      1.0  0.57271  0.72176  0.51282  1.0000
  H   H196      1.0  0.59873  0.76489  0.52953  1.0000
  C   C336      1.0  0.76541  0.91428  0.34155  1.0000
  C   C337      1.0  0.77181  0.90219  0.42209  1.0000
  C   C338      1.0  0.77129  0.87148  0.42524  1.0000
  C   C339      1.0  0.76498  0.85239  0.34485  1.0000
  H   H197      1.0  0.77308  0.91407  0.48134  1.0000
  C   C340      1.0  0.77394  0.85822  0.51434  1.0000
  H   H198      1.0  0.77897  0.87558  0.56957  1.0000
  H   H199      1.0  0.79406  0.85274  0.51262  1.0000
  H   H200      1.0  0.75095  0.83555  0.52995  1.0000
  C   C341      1.0  0.60093  0.85247  0.34129  1.0000
  C   C342      1.0  0.61319  0.87085  0.42199  1.0000
  C   C343      1.0  0.64395  0.90098  0.42515  1.0000
  C   C344      1.0  0.66292  0.91393  0.34459  1.0000
  H   H201      1.0  0.60149  0.86012  0.48133  1.0000
  C   C345      1.0  0.65735  0.91671  0.51437  1.0000
  H   H202      1.0  0.64006  0.90432  0.56968  1.0000
  H   H203      1.0  0.66292  0.94233  0.51317  1.0000
  H   H204      1.0  0.68000  0.91627  0.52948  1.0000
  C   C346      1.0  0.85666  0.76122  0.34137  1.0000
  C   C347      1.0  0.87506  0.76745  0.42206  1.0000
  C   C348      1.0  0.90523  0.76691  0.42530  1.0000
  C   C349      1.0  0.91810  0.76075  0.34487  1.0000
  H   H205      1.0  0.86441  0.76865  0.48131  1.0000
  C   C350      1.0  0.92107  0.76945  0.51445  1.0000
  H   H206      1.0  0.90869  0.77440  0.56970  1.0000
  H   H207      1.0  0.94666  0.78956  0.51296  1.0000
  H   H208      1.0  0.92072  0.74643  0.52986  1.0000
  C   C351      1.0  0.75415  0.59677  0.34128  1.0000
  C   C352      1.0  0.74757  0.60883  0.42161  1.0000
  C   C353      1.0  0.74812  0.63955  0.42469  1.0000
  C   C354      1.0  0.75454  0.65867  0.34434  1.0000
  H   H209      1.0  0.74630  0.59696  0.48088  1.0000
  C   C355      1.0  0.74537  0.65278  0.51374  1.0000
  H   H210      1.0  0.74030  0.63541  0.56897  1.0000
  H   H211      1.0  0.72525  0.65825  0.51186  1.0000
  H   H212      1.0  0.76834  0.67545  0.52950  1.0000
  C   C356      1.0  0.91856  0.65864  0.34180  1.0000
  C   C357      1.0  0.90630  0.64024  0.42245  1.0000
  C   C358      1.0  0.87556  0.61009  0.42542  1.0000
  C   C359      1.0  0.85665  0.59717  0.34475  1.0000
  H   H213      1.0  0.91797  0.65096  0.48184  1.0000
  C   C360      1.0  0.86212  0.59429  0.51454  1.0000
  H   H214      1.0  0.87937  0.60667  0.56995  1.0000
  H   H215      1.0  0.85661  0.56869  0.51325  1.0000
  H   H216      1.0  0.83944  0.59467  0.52958  1.0000
