data_image0
_chemical_formula_structural       C10HCH3CHC3HCH3CHC3HCH3CHC3HCH3CHC3HCH3CHC3HCH3CHC3HCH3CHC3HCH3CHC3HCH3CHC3HCH3CHC3HCH3CHC3HCH3CHC3HCH3CHC3HCH3CHC3HCH3CHC3HCH3CHC3HCH3CHC3HCH3CHC3HCH3CHC3HCH3CHC3HCH3CHC3HCH3CHC3HCH3CHC3HCH3CHNCNCN4CNCNCN4CNCNCN4CNCNCN4CNCNCN4CNCNCN4CNCNCN5CNCN5CNCN5CNCN5CNCN5CNCN5CNCN4CNCNCN4CNCNCN4CNCNCN4C3HCH3CHC3HCH3CHC3HCH3CHC3HCH3CHC3HCH3CHC3HCH3CHC3HCH3CHC3HCH3CHC3HCH3CHC3HCH3CHC3HCH3CHC3HCH3CHC3HCH3CHC3HCH3CHC3HCH3CHC3HCH3CHC3HCH3CHC3HCH3CHC3HCH3CHC3HCH3CHC3HCH3CHC3HCH3CHC3HCH3CHC3HCH3CH
_chemical_formula_sum              "C288 H240 N96"
_cell_length_a       63.6541
_cell_length_b       63.6541
_cell_length_c       14.6346
_cell_angle_alpha    90
_cell_angle_beta     90
_cell_angle_gamma    120

_space_group_name_H-M_alt    "P 1"
_space_group_IT_number       1

loop_
  _space_group_symop_operation_xyz
  'x, y, z'

loop_
  _atom_site_type_symbol
  _atom_site_label
  _atom_site_symmetry_multiplicity
  _atom_site_fract_x
  _atom_site_fract_y
  _atom_site_fract_z
  _atom_site_occupancy
  C   C1        1.0  0.99619  0.99151  0.35214  1.0000
  C   C2        1.0  0.42037  0.17144  0.35485  1.0000
  C   C3        1.0  0.77604  0.61084  0.35482  1.0000
  C   C4        1.0  0.85976  0.25516  0.35484  1.0000
  C   C5        1.0  0.15011  0.62904  0.35547  1.0000
  C   C6        1.0  0.40217  0.52733  0.35552  1.0000
  C   C7        1.0  0.50388  0.88109  0.35549  1.0000
  C   C8        1.0  0.01231  0.13441  0.35580  1.0000
  C   C9        1.0  0.01859  0.12497  0.27821  1.0000
  C   C10       1.0  0.01857  0.10261  0.28479  1.0000
  H   H1        1.0  0.02191  0.09553  0.22736  1.0000
  C   C11       1.0  0.02446  0.13694  0.18688  1.0000
  H   H2        1.0  0.02478  0.15421  0.18602  1.0000
  H   H3        1.0  0.01105  0.12503  0.13687  1.0000
  H   H4        1.0  0.04235  0.14046  0.16518  1.0000
  C   C12       1.0  0.00717  0.15352  0.34725  1.0000
  H   H5        1.0  0.99005  0.14875  0.33372  1.0000
  C   C13       1.0  0.89680  0.88414  0.35569  1.0000
  C   C14       1.0  0.90620  0.89991  0.27822  1.0000
  C   C15       1.0  0.92857  0.92224  0.28484  1.0000
  H   H6        1.0  0.93562  0.93272  0.22750  1.0000
  C   C16       1.0  0.89419  0.89386  0.18697  1.0000
  H   H7        1.0  0.87693  0.87690  0.18611  1.0000
  H   H8        1.0  0.90608  0.89241  0.13677  1.0000
  H   H9        1.0  0.89065  0.90824  0.16556  1.0000
  C   C17       1.0  0.87770  0.85990  0.34714  1.0000
  H   H10       1.0  0.88246  0.84754  0.33372  1.0000
  C   C18       1.0  0.14708  0.01892  0.35577  1.0000
  C   C19       1.0  0.13134  0.01261  0.27821  1.0000
  C   C20       1.0  0.10900  0.01263  0.28485  1.0000
  H   H11       1.0  0.09856  0.00927  0.22744  1.0000
  C   C21       1.0  0.13743  0.00672  0.18688  1.0000
  H   H12       1.0  0.15439  0.00642  0.18599  1.0000
  H   H13       1.0  0.13890  0.02012  0.13683  1.0000
  H   H14       1.0  0.12306  0.98882  0.16526  1.0000
  C   C22       1.0  0.17131  0.02404  0.34719  1.0000
  H   H15       1.0  0.18368  0.04116  0.33366  1.0000
  C   C23       1.0  0.08692  0.30434  0.36018  1.0000
  C   C24       1.0  0.09931  0.31635  0.27967  1.0000
  C   C25       1.0  0.11817  0.34101  0.27995  1.0000
  H   H16       1.0  0.09340  0.30738  0.21866  1.0000
  C   C26       1.0  0.12949  0.35274  0.19124  1.0000
  H   H17       1.0  0.12254  0.34019  0.13357  1.0000
  H   H18       1.0  0.14905  0.35997  0.19461  1.0000
  H   H19       1.0  0.12603  0.36759  0.17721  1.0000
  C   C27       1.0  0.06466  0.28285  0.35542  1.0000
  H   H20       1.0  0.05015  0.28479  0.34991  1.0000
  C   C28       1.0  0.72687  0.78879  0.36082  1.0000
  C   C29       1.0  0.71495  0.78929  0.28024  1.0000
  C   C30       1.0  0.69030  0.78352  0.28018  1.0000
  H   H21       1.0  0.72402  0.79251  0.21940  1.0000
  C   C31       1.0  0.67868  0.78329  0.19140  1.0000
  H   H22       1.0  0.69131  0.78899  0.13395  1.0000
  H   H23       1.0  0.67147  0.79562  0.19502  1.0000
  H   H24       1.0  0.66385  0.76502  0.17685  1.0000
  C   C32       1.0  0.74836  0.78801  0.35655  1.0000
  H   H25       1.0  0.74642  0.77152  0.35279  1.0000
  C   C33       1.0  0.24240  0.94430  0.36021  1.0000
  C   C34       1.0  0.24201  0.93190  0.27969  1.0000
  C   C35       1.0  0.24780  0.91304  0.27996  1.0000
  H   H26       1.0  0.23894  0.93781  0.21869  1.0000
  C   C36       1.0  0.24820  0.90172  0.19125  1.0000
  H   H27       1.0  0.24260  0.90867  0.13359  1.0000
  H   H28       1.0  0.23587  0.88216  0.19462  1.0000
  H   H29       1.0  0.26650  0.90517  0.17720  1.0000
  C   C37       1.0  0.24316  0.96655  0.35546  1.0000
  H   H30       1.0  0.25962  0.98107  0.35001  1.0000
  C   C38       1.0  0.35869  0.11865  0.35040  1.0000
  C   C39       1.0  0.34498  0.10578  0.27157  1.0000
  C   C40       1.0  0.32028  0.08735  0.28105  1.0000
  H   H31       1.0  0.31112  0.07727  0.22495  1.0000
  C   C41       1.0  0.35540  0.10984  0.17763  1.0000
  H   H32       1.0  0.37402  0.12482  0.17335  1.0000
  H   H33       1.0  0.34454  0.11398  0.13111  1.0000
  H   H34       1.0  0.35512  0.09346  0.15369  1.0000
  C   C42       1.0  0.38411  0.13276  0.34595  1.0000
  H   H35       1.0  0.39305  0.12387  0.33559  1.0000
  C   C43       1.0  0.78491  0.67252  0.35039  1.0000
  C   C44       1.0  0.78585  0.68625  0.27152  1.0000
  C   C45       1.0  0.79210  0.71095  0.28102  1.0000
  H   H36       1.0  0.79126  0.72014  0.22488  1.0000
  C   C46       1.0  0.77958  0.67586  0.17752  1.0000
  H   H37       1.0  0.77592  0.65724  0.17329  1.0000
  H   H38       1.0  0.79462  0.68672  0.13120  1.0000
  H   H39       1.0  0.76350  0.67616  0.15333  1.0000
  C   C47       1.0  0.77362  0.64710  0.34595  1.0000
  H   H40       1.0  0.75579  0.63816  0.33553  1.0000
  C   C48       1.0  0.91256  0.24628  0.35033  1.0000
  C   C49       1.0  0.92542  0.24547  0.27141  1.0000
  C   C50       1.0  0.94387  0.23923  0.28072  1.0000
  H   H41       1.0  0.95396  0.24020  0.22456  1.0000
  C   C51       1.0  0.92133  0.25185  0.17754  1.0000
  H   H42       1.0  0.90634  0.25548  0.17339  1.0000
  H   H43       1.0  0.91720  0.23688  0.13093  1.0000
  H   H44       1.0  0.93770  0.26798  0.15364  1.0000
  C   C52       1.0  0.89845  0.25758  0.34606  1.0000
  H   H45       1.0  0.90735  0.27543  0.33592  1.0000
  C   C53       1.0  0.28574  0.47988  0.35788  1.0000
  C   C54       1.0  0.30185  0.49256  0.28394  1.0000
  C   C55       1.0  0.32660  0.49889  0.28976  1.0000
  H   H46       1.0  0.33799  0.50776  0.23611  1.0000
  C   C56       1.0  0.29434  0.49967  0.19813  1.0000
  H   H47       1.0  0.27506  0.49369  0.19530  1.0000
  H   H48       1.0  0.29845  0.49176  0.13936  1.0000
  H   H49       1.0  0.30436  0.51939  0.19122  1.0000
  C   C57       1.0  0.26200  0.47584  0.35787  1.0000
  H   H50       1.0  0.26001  0.49037  0.36014  1.0000
  C   C58       1.0  0.55135  0.81212  0.35786  1.0000
  C   C59       1.0  0.53866  0.81555  0.28394  1.0000
  C   C60       1.0  0.53232  0.83396  0.28977  1.0000
  H   H51       1.0  0.52346  0.83648  0.23611  1.0000
  C   C61       1.0  0.53156  0.80094  0.19811  1.0000
  H   H52       1.0  0.53755  0.78764  0.19524  1.0000
  H   H53       1.0  0.53946  0.81297  0.13935  1.0000
  H   H54       1.0  0.51184  0.79123  0.19119  1.0000
  C   C62       1.0  0.55539  0.79242  0.35782  1.0000
  H   H55       1.0  0.54085  0.77590  0.36004  1.0000
  C   C63       1.0  0.21909  0.74547  0.35788  1.0000
  C   C64       1.0  0.21567  0.72935  0.28395  1.0000
  C   C65       1.0  0.19725  0.70461  0.28975  1.0000
  H   H56       1.0  0.19473  0.69322  0.23610  1.0000
  C   C66       1.0  0.23029  0.73687  0.19815  1.0000
  H   H57       1.0  0.24360  0.75615  0.19532  1.0000
  H   H58       1.0  0.21827  0.73276  0.13937  1.0000
  H   H59       1.0  0.23999  0.72685  0.19124  1.0000
  C   C67       1.0  0.23880  0.76921  0.35788  1.0000
  H   H60       1.0  0.25532  0.77120  0.36017  1.0000
  C   C68       1.0  0.49962  0.32951  0.34782  1.0000
  C   C69       1.0  0.48660  0.31334  0.27613  1.0000
  C   C70       1.0  0.47990  0.28847  0.27842  1.0000
  H   H61       1.0  0.48222  0.32001  0.22000  1.0000
  C   C71       1.0  0.46728  0.27307  0.19738  1.0000
  H   H62       1.0  0.46480  0.28317  0.14218  1.0000
  H   H63       1.0  0.44936  0.25845  0.21727  1.0000
  H   H64       1.0  0.47780  0.26522  0.17013  1.0000
  C   C72       1.0  0.50497  0.35364  0.34415  1.0000
  H   H65       1.0  0.49180  0.35676  0.32457  1.0000
  C   C73       1.0  0.85488  0.53161  0.34765  1.0000
  C   C74       1.0  0.85173  0.54464  0.27599  1.0000
  C   C75       1.0  0.83355  0.55133  0.27831  1.0000
  H   H66       1.0  0.86276  0.54900  0.21982  1.0000
  C   C76       1.0  0.83075  0.56394  0.19729  1.0000
  H   H67       1.0  0.84334  0.56643  0.14207  1.0000
  H   H68       1.0  0.83405  0.58186  0.21717  1.0000
  H   H69       1.0  0.81239  0.55342  0.17005  1.0000
  C   C77       1.0  0.87366  0.52625  0.34389  1.0000
  H   H70       1.0  0.88994  0.53942  0.32431  1.0000
  C   C78       1.0  0.70170  0.17633  0.34761  1.0000
  C   C79       1.0  0.71787  0.17949  0.27594  1.0000
  C   C80       1.0  0.74275  0.19767  0.27829  1.0000
  H   H71       1.0  0.71122  0.16846  0.21978  1.0000
  C   C81       1.0  0.75816  0.20047  0.19727  1.0000
  H   H72       1.0  0.74807  0.18789  0.14204  1.0000
  H   H73       1.0  0.77278  0.19716  0.21716  1.0000
  H   H74       1.0  0.76601  0.21884  0.17006  1.0000
  C   C82       1.0  0.67756  0.15755  0.34387  1.0000
  H   H75       1.0  0.67445  0.14127  0.32425  1.0000
  C   C83       1.0  0.17787  0.50850  0.34500  1.0000
  C   C84       1.0  0.18022  0.52404  0.27203  1.0000
  C   C85       1.0  0.16929  0.53874  0.27387  1.0000
  H   H76       1.0  0.18981  0.52430  0.21537  1.0000
  C   C86       1.0  0.17167  0.55367  0.19179  1.0000
  H   H77       1.0  0.18175  0.55127  0.13627  1.0000
  H   H78       1.0  0.18120  0.57286  0.21006  1.0000
  H   H79       1.0  0.15371  0.54870  0.16566  1.0000
  C   C87       1.0  0.18959  0.49496  0.34157  1.0000
  H   H80       1.0  0.20683  0.50335  0.32140  1.0000
  C   C88       1.0  0.52271  0.67561  0.34496  1.0000
  C   C89       1.0  0.50717  0.66243  0.27199  1.0000
  C   C90       1.0  0.49247  0.63680  0.27385  1.0000
  H   H81       1.0  0.50689  0.67176  0.21534  1.0000
  C   C91       1.0  0.47752  0.62424  0.19179  1.0000
  H   H82       1.0  0.47992  0.63672  0.13626  1.0000
  H   H83       1.0  0.45834  0.61459  0.21010  1.0000
  H   H84       1.0  0.48248  0.61125  0.16567  1.0000
  C   C92       1.0  0.53625  0.70088  0.34153  1.0000
  H   H85       1.0  0.52785  0.70973  0.32140  1.0000
  C   C93       1.0  0.35560  0.85334  0.34502  1.0000
  C   C94       1.0  0.36877  0.85098  0.27205  1.0000
  C   C95       1.0  0.39440  0.86191  0.27388  1.0000
  H   H86       1.0  0.35944  0.84139  0.21539  1.0000
  C   C96       1.0  0.40696  0.85953  0.19179  1.0000
  H   H87       1.0  0.39448  0.84946  0.13627  1.0000
  H   H88       1.0  0.41661  0.85000  0.21007  1.0000
  H   H89       1.0  0.41994  0.87749  0.16566  1.0000
  C   C97       1.0  0.33033  0.84161  0.34162  1.0000
  H   H90       1.0  0.32148  0.82437  0.32138  1.0000
  C   C98       1.0  0.54451  0.15008  0.36208  1.0000
  C   C99       1.0  0.52908  0.14764  0.28692  1.0000
  C   C100      1.0  0.51395  0.15807  0.29244  1.0000
  H   H91       1.0  0.50313  0.15650  0.23792  1.0000
  C   C101      1.0  0.52780  0.13475  0.20009  1.0000
  H   H92       1.0  0.54034  0.12782  0.19753  1.0000
  H   H93       1.0  0.53208  0.14713  0.14241  1.0000
  H   H94       1.0  0.50947  0.11943  0.19100  1.0000
  C   C102      1.0  0.55739  0.13757  0.36218  1.0000
  H   H95       1.0  0.54767  0.11954  0.36231  1.0000
  C   C103      1.0  0.63055  0.48670  0.36205  1.0000
  C   C104      1.0  0.64353  0.50214  0.28688  1.0000
  C   C105      1.0  0.66910  0.51726  0.29238  1.0000
  H   H96       1.0  0.67834  0.52808  0.23787  1.0000
  C   C106      1.0  0.63192  0.50342  0.20009  1.0000
  H   H97       1.0  0.61244  0.49088  0.19757  1.0000
  H   H98       1.0  0.64001  0.49914  0.14238  1.0000
  H   H99       1.0  0.63493  0.52175  0.19102  1.0000
  C   C107      1.0  0.60517  0.47382  0.36220  1.0000
  H   H100      1.0  0.59685  0.48353  0.36242  1.0000
  C   C108      1.0  0.88112  0.40066  0.36210  1.0000
  C   C109      1.0  0.88357  0.38768  0.28693  1.0000
  C   C110      1.0  0.87313  0.36211  0.29244  1.0000
  H   H101      1.0  0.87471  0.35287  0.23791  1.0000
  C   C111      1.0  0.89645  0.39929  0.20010  1.0000
  H   H102      1.0  0.90338  0.41877  0.19755  1.0000
  H   H103      1.0  0.88407  0.39119  0.14242  1.0000
  H   H104      1.0  0.91177  0.39628  0.19100  1.0000
  C   C112      1.0  0.89363  0.42605  0.36221  1.0000
  H   H105      1.0  0.91166  0.43437  0.36233  1.0000
  C   C113      1.0  0.04415  0.55730  0.35449  1.0000
  C   C114      1.0  0.02992  0.54860  0.27317  1.0000
  C   C115      1.0  0.00425  0.53583  0.27966  1.0000
  H   H106      1.0  0.99411  0.52834  0.22186  1.0000
  C   C116      1.0  0.04037  0.55109  0.17988  1.0000
  H   H107      1.0  0.06010  0.56187  0.17831  1.0000
  H   H108      1.0  0.03348  0.55994  0.13473  1.0000
  H   H109      1.0  0.03502  0.53316  0.15239  1.0000
  C   C117      1.0  0.06869  0.56431  0.35234  1.0000
  H   H110      1.0  0.07257  0.55106  0.34541  1.0000
  C   C118      1.0  0.47391  0.49312  0.35450  1.0000
  C   C119      1.0  0.48269  0.48776  0.27300  1.0000
  C   C120      1.0  0.49548  0.47487  0.27905  1.0000
  H   H111      1.0  0.50303  0.47236  0.22113  1.0000
  C   C121      1.0  0.48027  0.49588  0.17993  1.0000
  H   H112      1.0  0.46947  0.50482  0.17861  1.0000
  H   H113      1.0  0.47148  0.48023  0.13436  1.0000
  H   H114      1.0  0.49822  0.50854  0.15275  1.0000
  C   C122      1.0  0.46691  0.51065  0.35276  1.0000
  H   H115      1.0  0.48017  0.52779  0.34639  1.0000
  C   C123      1.0  0.53811  0.98706  0.35449  1.0000
  C   C124      1.0  0.54365  0.00129  0.27317  1.0000
  C   C125      1.0  0.55654  0.02695  0.27965  1.0000
  H   H116      1.0  0.55919  0.03710  0.22185  1.0000
  C   C126      1.0  0.53569  0.99084  0.17988  1.0000
  H   H117      1.0  0.52672  0.97110  0.17831  1.0000
  H   H118      1.0  0.55142  0.99773  0.13473  1.0000
  H   H119      1.0  0.52310  0.99618  0.15239  1.0000
  C   C127      1.0  0.52057  0.96251  0.35234  1.0000
  H   H120      1.0  0.50345  0.95864  0.34541  1.0000
  N   N1        1.0  0.99834  0.01398  0.35191  1.0000
  C   C128      1.0  0.02030  0.03502  0.35219  1.0000
  N   N2        1.0  0.04062  0.03287  0.35197  1.0000
  C   C129      1.0  0.03970  0.01091  0.35221  1.0000
  N   N3        1.0  0.01723  0.99059  0.35193  1.0000
  N   N4        1.0  0.97377  0.97164  0.35109  1.0000
  N   N5        1.0  0.05957  0.00837  0.35117  1.0000
  N   N6        1.0  0.02284  0.05744  0.35117  1.0000
  C   C130      1.0  0.02049  0.19629  0.35501  1.0000
  N   N7        1.0  0.04120  0.21846  0.35765  1.0000
  C   C131      1.0  0.04090  0.23976  0.35655  1.0000
  N   N8        1.0  0.01880  0.23826  0.35410  1.0000
  C   C132      1.0  0.99749  0.21679  0.35218  1.0000
  N   N9        1.0  0.99878  0.19596  0.35232  1.0000
  N   N10       1.0  0.02273  0.17630  0.35827  1.0000
  N   N11       1.0  0.97611  0.21637  0.35059  1.0000
  N   N12       1.0  0.06170  0.26123  0.35922  1.0000
  C   C133      1.0  0.83492  0.83044  0.35465  1.0000
  N   N13       1.0  0.81275  0.82897  0.35722  1.0000
  C   C134      1.0  0.79146  0.80737  0.35622  1.0000
  N   N14       1.0  0.79297  0.78677  0.35386  1.0000
  C   C135      1.0  0.81445  0.78695  0.35199  1.0000
  N   N15       1.0  0.83527  0.80907  0.35207  1.0000
  N   N16       1.0  0.85491  0.85268  0.35796  1.0000
  N   N17       1.0  0.81489  0.76600  0.35044  1.0000
  N   N18       1.0  0.76998  0.80669  0.35870  1.0000
  C   C136      1.0  0.20076  0.01071  0.35490  1.0000
  N   N19       1.0  0.20223  0.99001  0.35757  1.0000
  C   C137      1.0  0.22383  0.99032  0.35650  1.0000
  N   N20       1.0  0.24442  0.01242  0.35404  1.0000
  C   C138      1.0  0.24426  0.03372  0.35208  1.0000
  N   N21       1.0  0.22214  0.03242  0.35219  1.0000
  N   N22       1.0  0.17853  0.00847  0.35819  1.0000
  N   N23       1.0  0.26521  0.05511  0.35049  1.0000
  N   N24       1.0  0.22451  0.96952  0.35918  1.0000
  C   C139      1.0  0.17830  0.41545  0.35876  1.0000
  N   N25       1.0  0.20260  0.42362  0.35686  1.0000
  C   C140      1.0  0.21943  0.44774  0.35555  1.0000
  N   N26       1.0  0.21131  0.46391  0.35614  1.0000
  C   C141      1.0  0.18720  0.45660  0.35784  1.0000
  N   N27       1.0  0.17106  0.43234  0.35955  1.0000
  N   N28       1.0  0.16276  0.39145  0.35983  1.0000
  N   N29       1.0  0.17876  0.47205  0.35928  1.0000
  N   N30       1.0  0.24301  0.45450  0.35525  1.0000
  C   C142      1.0  0.61576  0.76910  0.35872  1.0000
  N   N31       1.0  0.60759  0.78523  0.35685  1.0000
  C   C143      1.0  0.58348  0.77795  0.35551  1.0000
  N   N32       1.0  0.56730  0.75365  0.35607  1.0000
  C   C144      1.0  0.57461  0.73685  0.35776  1.0000
  N   N33       1.0  0.59887  0.74496  0.35948  1.0000
  N   N34       1.0  0.63976  0.77755  0.35989  1.0000
  N   N35       1.0  0.55916  0.71296  0.35919  1.0000
  N   N36       1.0  0.57673  0.79477  0.35524  1.0000
  C   C145      1.0  0.26211  0.85291  0.35877  1.0000
  N   N37       1.0  0.24598  0.82860  0.35687  1.0000
  C   C146      1.0  0.25326  0.81177  0.35557  1.0000
  N   N38       1.0  0.27756  0.81989  0.35616  1.0000
  C   C147      1.0  0.29435  0.84400  0.35786  1.0000
  N   N39       1.0  0.28625  0.86015  0.35957  1.0000
  N   N40       1.0  0.25365  0.86845  0.35984  1.0000
  N   N41       1.0  0.31824  0.85244  0.35932  1.0000
  N   N42       1.0  0.23645  0.78820  0.35526  1.0000
  N   N43       1.0  0.42872  0.19579  0.35734  1.0000
  C   C148      1.0  0.45287  0.21253  0.35845  1.0000
  N   N44       1.0  0.46890  0.20423  0.35758  1.0000
  C   C149      1.0  0.46147  0.18009  0.35567  1.0000
  N   N45       1.0  0.43716  0.16405  0.35400  1.0000
  N   N46       1.0  0.39631  0.15605  0.35557  1.0000
  N   N47       1.0  0.47695  0.17165  0.35452  1.0000
  N   N48       1.0  0.45985  0.23618  0.35901  1.0000
  N   N49       1.0  0.79204  0.60250  0.35730  1.0000
  C   C150      1.0  0.78463  0.57835  0.35840  1.0000
  N   N50       1.0  0.76031  0.56231  0.35752  1.0000
  C   C151      1.0  0.74360  0.56974  0.35562  1.0000
  N   N51       1.0  0.75186  0.59405  0.35396  1.0000
  N   N52       1.0  0.78470  0.63490  0.35555  1.0000
  N   N53       1.0  0.71967  0.55426  0.35445  1.0000
  N   N54       1.0  0.80131  0.57138  0.35894  1.0000
  N   N55       1.0  0.83542  0.23917  0.35731  1.0000
  C   C152      1.0  0.81868  0.24658  0.35844  1.0000
  N   N56       1.0  0.82697  0.27090  0.35758  1.0000
  C   C153      1.0  0.85112  0.28761  0.35569  1.0000
  N   N57       1.0  0.86716  0.27935  0.35400  1.0000
  N   N58       1.0  0.87516  0.24650  0.35550  1.0000
  N   N59       1.0  0.85956  0.31154  0.35451  1.0000
  N   N60       1.0  0.79503  0.22990  0.35896  1.0000
  N   N61       1.0  0.15896  0.61347  0.35439  1.0000
  C   C154      1.0  0.14408  0.58895  0.35536  1.0000
  N   N62       1.0  0.11971  0.58018  0.35668  1.0000
  C   C155      1.0  0.11000  0.59502  0.35728  1.0000
  N   N63       1.0  0.12553  0.61943  0.35685  1.0000
  N   N64       1.0  0.16594  0.65287  0.35368  1.0000
  N   N65       1.0  0.08607  0.58649  0.35829  1.0000
  N   N66       1.0  0.15378  0.57455  0.35486  1.0000
  N   N67       1.0  0.41774  0.55174  0.35446  1.0000
  C   C156      1.0  0.44225  0.56139  0.35543  1.0000
  N   N68       1.0  0.45102  0.54578  0.35674  1.0000
  C   C157      1.0  0.43618  0.52123  0.35733  1.0000
  N   N69       1.0  0.41178  0.51236  0.35688  1.0000
  N   N70       1.0  0.37834  0.51932  0.35372  1.0000
  N   N71       1.0  0.44471  0.50583  0.35823  1.0000
  N   N72       1.0  0.45665  0.58549  0.35491  1.0000
  N   N73       1.0  0.47947  0.87225  0.35440  1.0000
  C   C158      1.0  0.46982  0.88712  0.35536  1.0000
  N   N74       1.0  0.48543  0.91150  0.35669  1.0000
  C   C159      1.0  0.50998  0.92120  0.35728  1.0000
  N   N75       1.0  0.51885  0.90567  0.35686  1.0000
  N   N76       1.0  0.51189  0.86527  0.35370  1.0000
  N   N77       1.0  0.52538  0.94513  0.35829  1.0000
  N   N78       1.0  0.44573  0.87742  0.35486  1.0000
  C   C160      1.0  0.63547  0.14476  0.35878  1.0000
  N   N79       1.0  0.61983  0.15353  0.36093  1.0000
  C   C161      1.0  0.59530  0.13860  0.36002  1.0000
  N   N80       1.0  0.58660  0.11424  0.35760  1.0000
  C   C162      1.0  0.60150  0.10461  0.35608  1.0000
  N   N81       1.0  0.62590  0.12019  0.35615  1.0000
  N   N82       1.0  0.65934  0.16057  0.36060  1.0000
  N   N83       1.0  0.59297  0.08069  0.35305  1.0000
  N   N84       1.0  0.58077  0.14818  0.36081  1.0000
  C   C163      1.0  0.53427  0.39573  0.35910  1.0000
  N   N85       1.0  0.55869  0.41138  0.36107  1.0000
  C   C164      1.0  0.56829  0.43591  0.36013  1.0000
  N   N86       1.0  0.55262  0.44460  0.35787  1.0000
  C   C165      1.0  0.52809  0.42970  0.35650  1.0000
  N   N87       1.0  0.51927  0.40531  0.35664  1.0000
  N   N88       1.0  0.52621  0.37186  0.36088  1.0000
  N   N89       1.0  0.51269  0.43822  0.35370  1.0000
  N   N90       1.0  0.59240  0.45044  0.36083  1.0000
  C   C166      1.0  0.88645  0.49695  0.35883  1.0000
  N   N91       1.0  0.87768  0.47254  0.36097  1.0000
  C   C167      1.0  0.89260  0.46293  0.36005  1.0000
  N   N92       1.0  0.91697  0.47860  0.35763  1.0000
  C   C168      1.0  0.92659  0.50313  0.35609  1.0000
  N   N93       1.0  0.91102  0.51195  0.35618  1.0000
  N   N94       1.0  0.87063  0.50501  0.36063  1.0000
  N   N95       1.0  0.95051  0.51851  0.35305  1.0000
  N   N96       1.0  0.88302  0.43882  0.36084  1.0000
  C   C169      1.0  0.01231  0.08878  0.36605  1.0000
  C   C170      1.0  0.00670  0.09863  0.44260  1.0000
  C   C171      1.0  0.00668  0.12096  0.43920  1.0000
  H   H121      1.0  0.00154  0.08871  0.50182  1.0000
  C   C172      1.0  0.99987  0.12944  0.52323  1.0000
  H   H122      1.0  0.99664  0.11764  0.58205  1.0000
  H   H123      1.0  0.98333  0.13016  0.51102  1.0000
  H   H124      1.0  0.01446  0.14755  0.54140  1.0000
  C   C173      1.0  0.00745  0.06460  0.36822  1.0000
  H   H125      1.0  0.99079  0.05213  0.38712  1.0000
  C   C174      1.0  0.94243  0.92976  0.36602  1.0000
  C   C175      1.0  0.93261  0.91427  0.44250  1.0000
  C   C176      1.0  0.91029  0.89191  0.43904  1.0000
  H   H126      1.0  0.94256  0.91897  0.50163  1.0000
  C   C177      1.0  0.90186  0.87657  0.52295  1.0000
  H   H127      1.0  0.91368  0.88511  0.58174  1.0000
  H   H128      1.0  0.90114  0.85932  0.51048  1.0000
  H   H129      1.0  0.88375  0.87302  0.54131  1.0000
  C   C178      1.0  0.96660  0.94909  0.36832  1.0000
  H   H130      1.0  0.97908  0.94492  0.38733  1.0000
  C   C179      1.0  0.10144  0.01890  0.36611  1.0000
  C   C180      1.0  0.11691  0.02451  0.44264  1.0000
  C   C181      1.0  0.13927  0.02454  0.43921  1.0000
  H   H131      1.0  0.11216  0.02967  0.50187  1.0000
  C   C182      1.0  0.15457  0.03136  0.52321  1.0000
  H   H132      1.0  0.14600  0.03458  0.58205  1.0000
  H   H133      1.0  0.17182  0.04790  0.51096  1.0000
  H   H134      1.0  0.15810  0.01677  0.54135  1.0000
  C   C183      1.0  0.08212  0.02375  0.36833  1.0000
  H   H135      1.0  0.08630  0.04040  0.38730  1.0000
  C   C184      1.0  0.12505  0.35434  0.36373  1.0000
  C   C185      1.0  0.11311  0.34216  0.44611  1.0000
  C   C186      1.0  0.09426  0.31756  0.44266  1.0000
  H   H136      1.0  0.08479  0.30944  0.50117  1.0000
  C   C187      1.0  0.11842  0.35411  0.53754  1.0000
  H   H137      1.0  0.13361  0.37266  0.53711  1.0000
  H   H138      1.0  0.12290  0.34384  0.58580  1.0000
  H   H139      1.0  0.10247  0.35450  0.56262  1.0000
  C   C188      1.0  0.13935  0.37969  0.36226  1.0000
  H   H140      1.0  0.13053  0.38891  0.36419  1.0000
  C   C189      1.0  0.67686  0.77692  0.36370  1.0000
  C   C190      1.0  0.68892  0.77699  0.44620  1.0000
  C   C191      1.0  0.71353  0.78275  0.44305  1.0000
  H   H141      1.0  0.72155  0.78127  0.50161  1.0000
  C   C192      1.0  0.67686  0.77021  0.53741  1.0000
  H   H142      1.0  0.65832  0.76685  0.53680  1.0000
  H   H143      1.0  0.68707  0.78486  0.58606  1.0000
  H   H144      1.0  0.67643  0.75381  0.56213  1.0000
  C   C193      1.0  0.65151  0.76588  0.36194  1.0000
  H   H145      1.0  0.64229  0.74784  0.36339  1.0000
  C   C194      1.0  0.25425  0.90616  0.36373  1.0000
  C   C195      1.0  0.25402  0.91810  0.44612  1.0000
  C   C196      1.0  0.24827  0.93696  0.44268  1.0000
  H   H146      1.0  0.24963  0.94643  0.50119  1.0000
  C   C197      1.0  0.26065  0.91279  0.53755  1.0000
  H   H147      1.0  0.26401  0.89760  0.53710  1.0000
  H   H148      1.0  0.24592  0.90831  0.58582  1.0000
  H   H149      1.0  0.27701  0.92874  0.56261  1.0000
  C   C198      1.0  0.26530  0.89185  0.36226  1.0000
  H   H150      1.0  0.28334  0.90068  0.36416  1.0000
  C   C199      1.0  0.30843  0.08107  0.36652  1.0000
  C   C200      1.0  0.32201  0.09441  0.44331  1.0000
  C   C201      1.0  0.34671  0.11298  0.43699  1.0000
  H   H151      1.0  0.31401  0.08954  0.50641  1.0000
  C   C202      1.0  0.35986  0.12518  0.52265  1.0000
  H   H152      1.0  0.34826  0.11888  0.58313  1.0000
  H   H153      1.0  0.36706  0.14469  0.51697  1.0000
  H   H154      1.0  0.37486  0.12178  0.53380  1.0000
  C   C203      1.0  0.28658  0.05923  0.37812  1.0000
  H   H155      1.0  0.28659  0.04835  0.42703  1.0000
  C   C204      1.0  0.79758  0.72276  0.36654  1.0000
  C   C205      1.0  0.79731  0.70917  0.44339  1.0000
  C   C206      1.0  0.79116  0.68447  0.43705  1.0000
  H   H156      1.0  0.80037  0.71715  0.50652  1.0000
  C   C207      1.0  0.79011  0.67129  0.52274  1.0000
  H   H157      1.0  0.79537  0.68287  0.58326  1.0000
  H   H158      1.0  0.80241  0.66407  0.51726  1.0000
  H   H159      1.0  0.77170  0.65630  0.53369  1.0000
  C   C208      1.0  0.79767  0.74466  0.37820  1.0000
  H   H160      1.0  0.78682  0.74461  0.42738  1.0000
  C   C209      1.0  0.95018  0.23365  0.36610  1.0000
  C   C210      1.0  0.93684  0.23383  0.44298  1.0000
  C   C211      1.0  0.91826  0.23994  0.43683  1.0000
  H   H161      1.0  0.94173  0.23070  0.50602  1.0000
  C   C212      1.0  0.90607  0.24086  0.52256  1.0000
  H   H162      1.0  0.91237  0.23554  0.58296  1.0000
  H   H163      1.0  0.88655  0.22855  0.51689  1.0000
  H   H164      1.0  0.90946  0.25925  0.53386  1.0000
  C   C213      1.0  0.97208  0.23373  0.37743  1.0000
  H   H165      1.0  0.98286  0.24463  0.42656  1.0000
  C   C214      1.0  0.33603  0.49300  0.36655  1.0000
  C   C215      1.0  0.31984  0.48019  0.43841  1.0000
  C   C216      1.0  0.29508  0.47390  0.43629  1.0000
  H   H166      1.0  0.32640  0.47570  0.49455  1.0000
  C   C217      1.0  0.27962  0.46147  0.51743  1.0000
  H   H167      1.0  0.28961  0.45879  0.57257  1.0000
  H   H168      1.0  0.26480  0.44365  0.49766  1.0000
  H   H169      1.0  0.27205  0.47224  0.54471  1.0000
  C   C218      1.0  0.36007  0.49810  0.37023  1.0000
  H   H170      1.0  0.36308  0.48486  0.38976  1.0000
  C   C219      1.0  0.53821  0.84929  0.36656  1.0000
  C   C220      1.0  0.55102  0.84590  0.43843  1.0000
  C   C221      1.0  0.55732  0.82744  0.43628  1.0000
  H   H171      1.0  0.55552  0.85696  0.49455  1.0000
  C   C222      1.0  0.56976  0.82441  0.51740  1.0000
  H   H172      1.0  0.57243  0.83707  0.57257  1.0000
  H   H173      1.0  0.58758  0.82742  0.49762  1.0000
  H   H174      1.0  0.55900  0.80608  0.54467  1.0000
  C   C223      1.0  0.53311  0.86822  0.37023  1.0000
  H   H175      1.0  0.54636  0.88448  0.38975  1.0000
  C   C224      1.0  0.18192  0.69517  0.36654  1.0000
  C   C225      1.0  0.18529  0.71136  0.43839  1.0000
  C   C226      1.0  0.20376  0.73612  0.43628  1.0000
  H   H176      1.0  0.17424  0.70480  0.49453  1.0000
  C   C227      1.0  0.20679  0.75158  0.51742  1.0000
  H   H177      1.0  0.19412  0.74159  0.57256  1.0000
  H   H178      1.0  0.20380  0.76640  0.49764  1.0000
  H   H179      1.0  0.22513  0.75915  0.54472  1.0000
  C   C228      1.0  0.16298  0.67113  0.37020  1.0000
  H   H180      1.0  0.14673  0.66813  0.38973  1.0000
  C   C229      1.0  0.48566  0.27895  0.35687  1.0000
  C   C230      1.0  0.49856  0.29503  0.43063  1.0000
  C   C231      1.0  0.50530  0.31990  0.42464  1.0000
  H   H181      1.0  0.51428  0.33125  0.47826  1.0000
  C   C232      1.0  0.50548  0.28737  0.51650  1.0000
  H   H182      1.0  0.49920  0.26802  0.51952  1.0000
  H   H183      1.0  0.49776  0.29172  0.57524  1.0000
  H   H184      1.0  0.52521  0.29711  0.52330  1.0000
  C   C233      1.0  0.48128  0.25506  0.35695  1.0000
  H   H185      1.0  0.49570  0.25288  0.35496  1.0000
  C   C234      1.0  0.81828  0.54557  0.35678  1.0000
  C   C235      1.0  0.82147  0.53266  0.43052  1.0000
  C   C236      1.0  0.83959  0.52593  0.42449  1.0000
  H   H186      1.0  0.84196  0.51693  0.47807  1.0000
  C   C237      1.0  0.80688  0.52573  0.51639  1.0000
  H   H187      1.0  0.79382  0.53202  0.51943  1.0000
  H   H188      1.0  0.81895  0.53345  0.57513  1.0000
  H   H189      1.0  0.79689  0.50601  0.52318  1.0000
  C   C238      1.0  0.79876  0.54994  0.35685  1.0000
  H   H190      1.0  0.78217  0.53552  0.35487  1.0000
  C   C239      1.0  0.75226  0.21293  0.35678  1.0000
  C   C240      1.0  0.73616  0.20974  0.43051  1.0000
  C   C241      1.0  0.71130  0.19161  0.42447  1.0000
  H   H191      1.0  0.69994  0.18924  0.47807  1.0000
  C   C242      1.0  0.74381  0.22431  0.51641  1.0000
  H   H192      1.0  0.76316  0.23737  0.51947  1.0000
  H   H193      1.0  0.73946  0.21223  0.57513  1.0000
  H   H194      1.0  0.73408  0.23430  0.52321  1.0000
  C   C243      1.0  0.77614  0.23245  0.35689  1.0000
  H   H195      1.0  0.77832  0.24904  0.35493  1.0000
  C   C244      1.0  0.15609  0.53860  0.35305  1.0000
  C   C245      1.0  0.15387  0.52324  0.42814  1.0000
  C   C246      1.0  0.16473  0.50849  0.42262  1.0000
  H   H196      1.0  0.16328  0.49769  0.47699  1.0000
  C   C247      1.0  0.14080  0.52164  0.51481  1.0000
  H   H197      1.0  0.13350  0.53389  0.51729  1.0000
  H   H198      1.0  0.15316  0.52612  0.57264  1.0000
  H   H199      1.0  0.12570  0.50318  0.52369  1.0000
  C   C248      1.0  0.14332  0.55119  0.35303  1.0000
  H   H200      1.0  0.12530  0.54134  0.35221  1.0000
  C   C249      1.0  0.49261  0.62375  0.35303  1.0000
  C   C250      1.0  0.50797  0.63688  0.42812  1.0000
  C   C251      1.0  0.52272  0.66248  0.42257  1.0000
  H   H201      1.0  0.53351  0.67185  0.47696  1.0000
  C   C252      1.0  0.50956  0.62541  0.51481  1.0000
  H   H202      1.0  0.49732  0.60588  0.51732  1.0000
  H   H203      1.0  0.50509  0.63331  0.57263  1.0000
  H   H204      1.0  0.52803  0.62879  0.52370  1.0000
  C   C253      1.0  0.48001  0.59839  0.35307  1.0000
  H   H205      1.0  0.48987  0.59021  0.35225  1.0000
  C   C254      1.0  0.40747  0.87511  0.35305  1.0000
  C   C255      1.0  0.39433  0.87734  0.42815  1.0000
  C   C256      1.0  0.36873  0.86648  0.42263  1.0000
  H   H206      1.0  0.35937  0.86792  0.47701  1.0000
  C   C257      1.0  0.40581  0.89041  0.51481  1.0000
  H   H207      1.0  0.42535  0.89771  0.51729  1.0000
  H   H208      1.0  0.39792  0.87805  0.57265  1.0000
  H   H209      1.0  0.40244  0.90551  0.52369  1.0000
  C   C258      1.0  0.43283  0.88788  0.35302  1.0000
  H   H210      1.0  0.44100  0.90590  0.35220  1.0000
  C   C259      1.0  0.51362  0.17102  0.37013  1.0000
  C   C260      1.0  0.52923  0.17361  0.44316  1.0000
  C   C261      1.0  0.54431  0.16309  0.44132  1.0000
  H   H211      1.0  0.52931  0.18310  0.49984  1.0000
  C   C262      1.0  0.55931  0.16570  0.52347  1.0000
  H   H212      1.0  0.55667  0.17561  0.57901  1.0000
  H   H213      1.0  0.57850  0.17550  0.50530  1.0000
  H   H214      1.0  0.55462  0.14781  0.54953  1.0000
  C   C263      1.0  0.49981  0.18249  0.37336  1.0000
  H   H215      1.0  0.50805  0.19968  0.39418  1.0000
  C   C264      1.0  0.68238  0.51759  0.37005  1.0000
  C   C265      1.0  0.66936  0.50197  0.44307  1.0000
  C   C266      1.0  0.64376  0.48690  0.44127  1.0000
  H   H216      1.0  0.67878  0.50191  0.49977  1.0000
  C   C267      1.0  0.63138  0.47191  0.52344  1.0000
  H   H217      1.0  0.64393  0.47454  0.57896  1.0000
  H   H218      1.0  0.62199  0.45271  0.50528  1.0000
  H   H219      1.0  0.61818  0.47660  0.54952  1.0000
  C   C268      1.0  0.70766  0.53140  0.37329  1.0000
  H   H220      1.0  0.71661  0.52317  0.39412  1.0000
  C   C269      1.0  0.86019  0.34884  0.37012  1.0000
  C   C270      1.0  0.85760  0.36186  0.44316  1.0000
  C   C271      1.0  0.86812  0.38746  0.44134  1.0000
  H   H221      1.0  0.84811  0.35244  0.49984  1.0000
  C   C272      1.0  0.86551  0.39984  0.52350  1.0000
  H   H222      1.0  0.85559  0.38729  0.57903  1.0000
  H   H223      1.0  0.85570  0.40923  0.50533  1.0000
  H   H224      1.0  0.88340  0.41304  0.54955  1.0000
  C   C273      1.0  0.84871  0.32356  0.37332  1.0000
  H   H225      1.0  0.83153  0.31460  0.39420  1.0000
  C   C274      1.0  0.99226  0.53149  0.36440  1.0000
  C   C275      1.0  0.00649  0.54089  0.44385  1.0000
  C   C276      1.0  0.03220  0.55374  0.44046  1.0000
  H   H226      1.0  0.99794  0.53705  0.50602  1.0000
  C   C277      1.0  0.04601  0.56209  0.52789  1.0000
  H   H227      1.0  0.03428  0.55825  0.58740  1.0000
  H   H228      1.0  0.05830  0.58166  0.52532  1.0000
  H   H229      1.0  0.05662  0.55311  0.53827  1.0000
  C   C278      1.0  0.96784  0.51426  0.37169  1.0000
  H   H230      1.0  0.96393  0.49779  0.39228  1.0000
  C   C279      1.0  0.49975  0.46704  0.36354  1.0000
  C   C280      1.0  0.49030  0.47174  0.44315  1.0000
  C   C281      1.0  0.47742  0.48456  0.44018  1.0000
  H   H231      1.0  0.49407  0.46688  0.50515  1.0000
  C   C282      1.0  0.46898  0.48984  0.52778  1.0000
  H   H232      1.0  0.47278  0.48184  0.58704  1.0000
  H   H233      1.0  0.44941  0.48254  0.52502  1.0000
  H   H234      1.0  0.47793  0.50940  0.53870  1.0000
  C   C283      1.0  0.51705  0.45993  0.37029  1.0000
  H   H235      1.0  0.53366  0.47267  0.38867  1.0000
  C   C284      1.0  0.56419  0.03894  0.36440  1.0000
  C   C285      1.0  0.55936  0.02471  0.44385  1.0000
  C   C286      1.0  0.54650  0.99900  0.44046  1.0000
  H   H236      1.0  0.56408  0.03326  0.50601  1.0000
  C   C287      1.0  0.54104  0.98519  0.52789  1.0000
  H   H237      1.0  0.54893  0.99692  0.58739  1.0000
  H   H238      1.0  0.54833  0.97291  0.52531  1.0000
  H   H239      1.0  0.52146  0.97459  0.53827  1.0000
  C   C288      1.0  0.57139  0.06337  0.37168  1.0000
  H   H240      1.0  0.55883  0.06728  0.39223  1.0000
