data_image0
_chemical_formula_structural       C3HNO2COC3HNO2COC3HNO2COC3HNO2COC3HNO2COC3HNO2COC3HNO2COC3HNO2COC3HNO2COC3HNO2COC3HNO2COC3HNO2COC3HNO2COC3HNO2COC3HNO2COC3HNO2COC3HNO2COC3HNO2COC3HNO2COC3HNO2COC3HNO2COC3HNO2COC3HNO2COC3HNO2COC3HNO2COC3HNO2COC3HNO2COC3HNO2COC3HNO2COC3HNO2COCNCNCN2HNHNHCNCNCN2HNHNHCNCNCN2HNHNHCNCNCN2HNHNHCNCNCN2HNHNHCNCNCN2HNHNHCNCNCN2HNHNHCNCNCN2HNHNHCNCNCN2HNHNHCNCNCN2HNHNHCNCNCN2HNHNHCNCNCN2HNHNHCNCNCN2HNHNHCNCNCN2HNHNHCNCNCN2HNHNHCNCNCN2HNHNHCNCNCN2HNHNHCNCNCN2HNHNHCNCNCN2HNHNHCNCNCN2HNHNHC3HNO2COC3HNO2COC3HNO2COC3HNO2COC3HNO2COC3HNO2COC3HNO2COC3HNO2COC3HNO2COC3HNO2COC3HNO2COC3HNO2COC3HNO2COC3HNO2COC3HNO2COC3HNO2COC3HNO2COC3HNO2COC3HNO2COC3HNO2COC3HNO2COC3HNO2COC3HNO2COC3HNO2COC3HNO2COC3HNO2COC3HNO2COC3HNO2COC3HNO2COC3HNO2CO
_chemical_formula_sum              "C300 H120 N180 O180"
_cell_length_a       80.8512
_cell_length_b       56.1165
_cell_length_c       15.0209
_cell_angle_alpha    90
_cell_angle_beta     90
_cell_angle_gamma    90.4082

_space_group_name_H-M_alt    "P 1"
_space_group_IT_number       1

loop_
  _space_group_symop_operation_xyz
  'x, y, z'

loop_
  _atom_site_type_symbol
  _atom_site_label
  _atom_site_symmetry_multiplicity
  _atom_site_fract_x
  _atom_site_fract_y
  _atom_site_fract_z
  _atom_site_occupancy
  C   C1        1.0  0.18152  0.23295  0.28465  1.0000
  C   C2        1.0  0.18812  0.21604  0.22437  1.0000
  C   C3        1.0  0.19721  0.19657  0.25807  1.0000
  H   H1        1.0  0.20238  0.18494  0.21368  1.0000
  N   N1        1.0  0.18555  0.21884  0.13162  1.0000
  O   O1        1.0  0.17769  0.20147  0.09940  1.0000
  O   O2        1.0  0.19898  0.22106  0.09028  1.0000
  C   C4        1.0  0.17447  0.25463  0.25479  1.0000
  O   O3        1.0  0.18340  0.26731  0.19460  1.0000
  C   C5        1.0  0.83688  0.79061  0.27609  1.0000
  C   C6        1.0  0.82998  0.80718  0.21557  1.0000
  C   C7        1.0  0.82090  0.82666  0.24917  1.0000
  H   H2        1.0  0.81555  0.83812  0.20475  1.0000
  N   N2        1.0  0.83228  0.80405  0.12277  1.0000
  O   O4        1.0  0.83994  0.82139  0.08895  1.0000
  O   O5        1.0  0.81873  0.80152  0.08282  1.0000
  C   C8        1.0  0.84400  0.76897  0.24672  1.0000
  O   O6        1.0  0.83473  0.75546  0.19072  1.0000
  C   C9        1.0  0.81585  0.19457  0.32390  1.0000
  C   C10       1.0  0.82251  0.21060  0.26027  1.0000
  C   C11       1.0  0.83237  0.22991  0.28994  1.0000
  H   H3        1.0  0.83664  0.24184  0.24357  1.0000
  N   N3        1.0  0.81931  0.20710  0.16839  1.0000
  O   O7        1.0  0.83243  0.20387  0.12536  1.0000
  O   O8        1.0  0.81182  0.22451  0.13509  1.0000
  C   C12       1.0  0.80465  0.17624  0.29908  1.0000
  O   O9        1.0  0.79148  0.18269  0.24905  1.0000
  C   C13       1.0  0.20023  0.82833  0.32218  1.0000
  C   C14       1.0  0.19304  0.81149  0.26308  1.0000
  C   C15       1.0  0.18389  0.79213  0.29842  1.0000
  H   H4        1.0  0.17930  0.77962  0.25514  1.0000
  N   N4        1.0  0.19509  0.81423  0.16990  1.0000
  O   O10       1.0  0.18142  0.81665  0.13117  1.0000
  O   O11       1.0  0.20245  0.79677  0.13620  1.0000
  C   C16       1.0  0.21110  0.84652  0.29159  1.0000
  O   O12       1.0  0.22343  0.83978  0.23617  1.0000
  C   C17       1.0  0.68147  0.73496  0.28164  1.0000
  C   C18       1.0  0.68810  0.71796  0.22187  1.0000
  C   C19       1.0  0.69708  0.69846  0.25624  1.0000
  H   H5        1.0  0.70228  0.68675  0.21223  1.0000
  N   N5        1.0  0.68567  0.72067  0.12897  1.0000
  O   O13       1.0  0.67781  0.70332  0.09667  1.0000
  O   O14       1.0  0.69918  0.72277  0.08818  1.0000
  C   C20       1.0  0.67449  0.75663  0.25120  1.0000
  O   O15       1.0  0.68351  0.76925  0.19131  1.0000
  C   C21       1.0  0.33653  0.28893  0.27648  1.0000
  C   C22       1.0  0.32961  0.30545  0.21584  1.0000
  C   C23       1.0  0.32054  0.32497  0.24934  1.0000
  H   H6        1.0  0.31519  0.33640  0.20487  1.0000
  N   N6        1.0  0.33188  0.30225  0.12306  1.0000
  O   O16       1.0  0.33952  0.31956  0.08897  1.0000
  O   O17       1.0  0.31831  0.29969  0.08328  1.0000
  C   C24       1.0  0.34368  0.26731  0.24727  1.0000
  O   O18       1.0  0.33443  0.25371  0.19145  1.0000
  C   C25       1.0  0.31570  0.69287  0.32546  1.0000
  C   C26       1.0  0.32230  0.70872  0.26102  1.0000
  C   C27       1.0  0.33235  0.72795  0.28960  1.0000
  H   H7        1.0  0.33657  0.73976  0.24267  1.0000
  N   N7        1.0  0.31886  0.70511  0.16945  1.0000
  O   O19       1.0  0.33186  0.70165  0.12560  1.0000
  O   O20       1.0  0.31140  0.72257  0.13628  1.0000
  C   C28       1.0  0.30437  0.67459  0.30179  1.0000
  O   O21       1.0  0.29111  0.68107  0.25246  1.0000
  C   C29       1.0  0.69971  0.33023  0.32408  1.0000
  C   C30       1.0  0.69255  0.31332  0.26521  1.0000
  C   C31       1.0  0.68339  0.29399  0.30080  1.0000
  H   H8        1.0  0.67883  0.28142  0.25770  1.0000
  N   N8        1.0  0.69462  0.31594  0.17201  1.0000
  O   O22       1.0  0.68097  0.31831  0.13310  1.0000
  O   O23       1.0  0.70200  0.29844  0.13867  1.0000
  C   C32       1.0  0.71060  0.34838  0.29327  1.0000
  O   O24       1.0  0.72295  0.34156  0.23808  1.0000
  C   C33       1.0  0.19199  0.38091  0.32705  1.0000
  C   C34       1.0  0.20424  0.38288  0.25985  1.0000
  C   C35       1.0  0.21984  0.39276  0.28170  1.0000
  H   H9        1.0  0.22871  0.39375  0.23309  1.0000
  N   N9        1.0  0.20070  0.37511  0.17203  1.0000
  O   O25       1.0  0.21044  0.35905  0.14720  1.0000
  O   O26       1.0  0.20155  0.39205  0.11749  1.0000
  C   C36       1.0  0.17708  0.36787  0.31254  1.0000
  O   O27       1.0  0.16291  0.37718  0.34519  1.0000
  C   C37       1.0  0.82637  0.64419  0.35009  1.0000
  C   C38       1.0  0.81436  0.64186  0.28174  1.0000
  C   C39       1.0  0.79871  0.63200  0.30256  1.0000
  H   H10       1.0  0.79002  0.63077  0.25309  1.0000
  N   N10       1.0  0.81817  0.64927  0.19380  1.0000
  O   O28       1.0  0.80850  0.66518  0.16703  1.0000
  O   O29       1.0  0.81755  0.63210  0.14017  1.0000
  C   C40       1.0  0.84127  0.65726  0.33606  1.0000
  O   O30       1.0  0.85548  0.64808  0.36862  1.0000
  C   C41       1.0  0.79452  0.40144  0.26964  1.0000
  C   C42       1.0  0.80613  0.40062  0.19906  1.0000
  C   C43       1.0  0.82175  0.39011  0.21434  1.0000
  H   H11       1.0  0.82973  0.38843  0.16180  1.0000
  N   N11       1.0  0.80160  0.40892  0.11347  1.0000
  O   O31       1.0  0.80177  0.39245  0.05676  1.0000
  O   O32       1.0  0.81109  0.42533  0.08758  1.0000
  C   C44       1.0  0.77809  0.40956  0.25740  1.0000
  O   O33       1.0  0.77599  0.43171  0.22375  1.0000
  C   C45       1.0  0.22184  0.61824  0.30528  1.0000
  C   C46       1.0  0.20968  0.61978  0.23769  1.0000
  C   C47       1.0  0.19432  0.63052  0.25780  1.0000
  H   H12       1.0  0.18593  0.63272  0.20747  1.0000
  N   N12       1.0  0.21343  0.61205  0.15026  1.0000
  O   O34       1.0  0.21302  0.62897  0.09550  1.0000
  O   O35       1.0  0.20354  0.59608  0.12474  1.0000
  C   C48       1.0  0.23818  0.61048  0.28769  1.0000
  O   O36       1.0  0.24017  0.58854  0.25204  1.0000
  C   C49       1.0  0.69212  0.88271  0.32492  1.0000
  C   C50       1.0  0.70443  0.88482  0.25806  1.0000
  C   C51       1.0  0.72004  0.89454  0.28065  1.0000
  H   H13       1.0  0.72895  0.89564  0.23224  1.0000
  N   N13       1.0  0.70093  0.87736  0.16982  1.0000
  O   O37       1.0  0.71063  0.86134  0.14441  1.0000
  O   O38       1.0  0.70186  0.89449  0.11610  1.0000
  C   C52       1.0  0.67719  0.86980  0.30956  1.0000
  O   O39       1.0  0.66305  0.87907  0.34283  1.0000
  C   C53       1.0  0.32678  0.14227  0.34881  1.0000
  C   C54       1.0  0.31478  0.13986  0.28046  1.0000
  C   C55       1.0  0.29914  0.12997  0.30135  1.0000
  H   H14       1.0  0.29045  0.12870  0.25189  1.0000
  N   N14       1.0  0.31859  0.14723  0.19247  1.0000
  O   O40       1.0  0.30890  0.16309  0.16555  1.0000
  O   O41       1.0  0.31800  0.13003  0.13897  1.0000
  C   C56       1.0  0.34162  0.15549  0.33479  1.0000
  O   O42       1.0  0.35587  0.14647  0.36754  1.0000
  C   C57       1.0  0.29494  0.89964  0.26738  1.0000
  C   C58       1.0  0.30648  0.89882  0.19645  1.0000
  C   C59       1.0  0.32209  0.88823  0.21115  1.0000
  H   H15       1.0  0.33002  0.88656  0.15836  1.0000
  N   N15       1.0  0.30188  0.90721  0.11109  1.0000
  O   O43       1.0  0.30196  0.89079  0.05419  1.0000
  O   O44       1.0  0.31138  0.92360  0.08510  1.0000
  C   C60       1.0  0.27851  0.90779  0.25568  1.0000
  O   O45       1.0  0.27639  0.92997  0.22234  1.0000
  C   C61       1.0  0.72201  0.12038  0.30490  1.0000
  C   C62       1.0  0.70974  0.12186  0.23787  1.0000
  C   C63       1.0  0.69442  0.13262  0.25857  1.0000
  H   H16       1.0  0.68593  0.13474  0.20864  1.0000
  N   N16       1.0  0.71335  0.11403  0.15039  1.0000
  O   O46       1.0  0.71286  0.13089  0.09542  1.0000
  O   O47       1.0  0.70341  0.09805  0.12555  1.0000
  C   C64       1.0  0.73830  0.11251  0.28670  1.0000
  O   O48       1.0  0.74018  0.09047  0.25174  1.0000
  C   C65       1.0  0.05974  0.34518  0.29596  1.0000
  C   C66       1.0  0.06902  0.33920  0.21922  1.0000
  C   C67       1.0  0.08472  0.32864  0.23009  1.0000
  H   H17       1.0  0.09150  0.32466  0.17447  1.0000
  N   N17       1.0  0.06280  0.34461  0.13343  1.0000
  O   O49       1.0  0.07207  0.35902  0.09281  1.0000
  O   O50       1.0  0.06115  0.32616  0.08678  1.0000
  C   C68       1.0  0.04388  0.35557  0.28976  1.0000
  O   O51       1.0  0.03249  0.34386  0.23984  1.0000
  C   C69       1.0  0.95888  0.67792  0.24787  1.0000
  C   C70       1.0  0.95220  0.69056  0.17461  1.0000
  C   C71       1.0  0.93662  0.70162  0.18381  1.0000
  H   H18       1.0  0.93171  0.71019  0.12982  1.0000
  N   N18       1.0  0.96084  0.69125  0.09255  1.0000
  O   O52       1.0  0.95266  0.68156  0.03110  1.0000
  O   O53       1.0  0.96429  0.71226  0.06992  1.0000
  C   C72       1.0  0.97478  0.66735  0.24475  1.0000
  O   O54       1.0  0.98733  0.68099  0.21282  1.0000
  C   C73       1.0  0.92602  0.32543  0.35502  1.0000
  C   C74       1.0  0.93441  0.33394  0.27845  1.0000
  C   C75       1.0  0.94857  0.34856  0.28960  1.0000
  H   H19       1.0  0.95440  0.35504  0.23400  1.0000
  N   N19       1.0  0.92855  0.32766  0.19262  1.0000
  O   O55       1.0  0.92463  0.34575  0.14827  1.0000
  O   O56       1.0  0.93921  0.31623  0.14960  1.0000
  C   C76       1.0  0.91079  0.31300  0.34846  1.0000
  O   O57       1.0  0.90933  0.29254  0.39578  1.0000
  C   C77       1.0  0.09120  0.69635  0.37829  1.0000
  C   C78       1.0  0.08118  0.69455  0.30122  1.0000
  C   C79       1.0  0.06699  0.67967  0.30357  1.0000
  H   H20       1.0  0.06029  0.67756  0.24620  1.0000
  N   N20       1.0  0.08600  0.70635  0.22187  1.0000
  O   O58       1.0  0.08887  0.69185  0.16008  1.0000
  O   O59       1.0  0.07511  0.72064  0.19621  1.0000
  C   C80       1.0  0.10682  0.70797  0.37687  1.0000
  O   O60       1.0  0.10752  0.73080  0.34788  1.0000
  C   C81       1.0  0.55958  0.84644  0.29916  1.0000
  C   C82       1.0  0.56883  0.84102  0.22173  1.0000
  C   C83       1.0  0.58464  0.83072  0.23136  1.0000
  H   H21       1.0  0.59137  0.82710  0.17524  1.0000
  N   N21       1.0  0.56244  0.84670  0.13652  1.0000
  O   O61       1.0  0.57152  0.86148  0.09654  1.0000
  O   O62       1.0  0.56092  0.82843  0.08873  1.0000
  C   C84       1.0  0.54361  0.85654  0.29420  1.0000
  O   O63       1.0  0.53228  0.84488  0.24375  1.0000
  C   C85       1.0  0.45917  0.17808  0.24625  1.0000
  C   C86       1.0  0.45241  0.19092  0.17370  1.0000
  C   C87       1.0  0.43676  0.20174  0.18354  1.0000
  H   H22       1.0  0.43178  0.21043  0.13001  1.0000
  N   N22       1.0  0.46103  0.19202  0.09164  1.0000
  O   O64       1.0  0.45289  0.18246  0.02973  1.0000
  O   O65       1.0  0.46435  0.21315  0.07010  1.0000
  C   C88       1.0  0.47508  0.16760  0.24234  1.0000
  O   O66       1.0  0.48760  0.18141  0.21091  1.0000
  C   C89       1.0  0.42618  0.82383  0.35356  1.0000
  C   C90       1.0  0.43474  0.83267  0.27805  1.0000
  C   C91       1.0  0.44866  0.84767  0.29097  1.0000
  H   H23       1.0  0.45460  0.85437  0.23611  1.0000
  N   N23       1.0  0.42928  0.82636  0.19149  1.0000
  O   O67       1.0  0.42528  0.84440  0.14707  1.0000
  O   O68       1.0  0.44024  0.81529  0.14940  1.0000
  C   C92       1.0  0.41111  0.81106  0.34516  1.0000
  O   O69       1.0  0.40965  0.79061  0.39255  1.0000
  C   C93       1.0  0.59124  0.19691  0.37587  1.0000
  C   C94       1.0  0.58154  0.19496  0.29766  1.0000
  C   C95       1.0  0.56751  0.17974  0.29816  1.0000
  H   H24       1.0  0.56103  0.17758  0.24009  1.0000
  N   N24       1.0  0.58652  0.20698  0.21908  1.0000
  O   O70       1.0  0.58980  0.19265  0.15737  1.0000
  O   O71       1.0  0.57556  0.22104  0.19246  1.0000
  C   C96       1.0  0.60674  0.20889  0.37640  1.0000
  O   O72       1.0  0.60733  0.23170  0.34718  1.0000
  C   C97       1.0  0.00389  0.53534  0.33868  1.0000
  C   C98       1.0  0.99876  0.51805  0.27534  1.0000
  C   C99       1.0  0.00332  0.49399  0.28763  1.0000
  H   H25       1.0  0.99982  0.48180  0.24037  1.0000
  N   N25       1.0  0.98976  0.52507  0.19885  1.0000
  O   O73       1.0  0.99757  0.52081  0.12835  1.0000
  O   O74       1.0  0.97591  0.51481  0.19500  1.0000
  C   C100      1.0  0.99977  0.55986  0.32922  1.0000
  O   O75       1.0  0.98394  0.56507  0.30769  1.0000
  C   C101      1.0  0.50343  0.03550  0.34175  1.0000
  C   C102      1.0  0.49781  0.01785  0.28102  1.0000
  C   C103      1.0  0.50217  0.99379  0.29524  1.0000
  H   H26       1.0  0.49838  0.98135  0.24955  1.0000
  N   N26       1.0  0.48854  0.02450  0.20500  1.0000
  O   O76       1.0  0.49598  0.01953  0.13399  1.0000
  O   O77       1.0  0.47457  0.01453  0.20403  1.0000
  C   C104      1.0  0.49956  0.06003  0.33011  1.0000
  O   O78       1.0  0.48368  0.06546  0.31044  1.0000
  C   C105      1.0  0.20704  0.03648  0.33857  1.0000
  C   C106      1.0  0.20712  0.02460  0.25528  1.0000
  C   C107      1.0  0.20727  0.99941  0.25385  1.0000
  H   H27       1.0  0.20785  0.99089  0.19360  1.0000
  N   N27       1.0  0.20805  0.03794  0.17530  1.0000
  O   O79       1.0  0.22111  0.03368  0.13300  1.0000
  O   O80       1.0  0.19589  0.03368  0.12554  1.0000
  C   C108      1.0  0.20898  0.06152  0.34469  1.0000
  O   O81       1.0  0.19820  0.07511  0.29837  1.0000
  C   C109      1.0  0.81268  0.98682  0.33577  1.0000
  C   C110      1.0  0.81235  0.99874  0.25261  1.0000
  C   C111      1.0  0.81198  0.02392  0.25151  1.0000
  H   H28       1.0  0.81116  0.03249  0.19146  1.0000
  N   N28       1.0  0.81136  0.98543  0.17259  1.0000
  O   O82       1.0  0.79817  0.98950  0.13115  1.0000
  O   O83       1.0  0.82337  0.98993  0.12211  1.0000
  C   C112      1.0  0.81067  0.96180  0.34169  1.0000
  O   O84       1.0  0.82155  0.94820  0.29618  1.0000
  C   C113      1.0  0.70664  0.53838  0.33860  1.0000
  C   C114      1.0  0.70679  0.52649  0.25534  1.0000
  C   C115      1.0  0.70695  0.50130  0.25395  1.0000
  H   H29       1.0  0.70756  0.49278  0.19374  1.0000
  N   N29       1.0  0.70776  0.53983  0.17536  1.0000
  O   O85       1.0  0.72085  0.53557  0.13332  1.0000
  O   O86       1.0  0.69564  0.53554  0.12536  1.0000
  C   C116      1.0  0.70855  0.56343  0.34477  1.0000
  O   O87       1.0  0.69781  0.57699  0.29808  1.0000
  C   C117      1.0  0.31268  0.48522  0.33496  1.0000
  C   C118      1.0  0.31249  0.49721  0.25194  1.0000
  C   C119      1.0  0.31219  0.52240  0.25112  1.0000
  H   H30       1.0  0.31143  0.53103  0.19117  1.0000
  N   N30       1.0  0.31155  0.48398  0.17171  1.0000
  O   O88       1.0  0.29843  0.48817  0.12986  1.0000
  O   O89       1.0  0.32364  0.48846  0.12170  1.0000
  C   C120      1.0  0.31057  0.46022  0.34043  1.0000
  O   O90       1.0  0.32144  0.44653  0.29524  1.0000
  C   C121      1.0  0.15669  0.28780  0.28792  1.0000
  N   N31       1.0  0.14065  0.29474  0.29271  1.0000
  C   C122      1.0  0.13648  0.31820  0.29165  1.0000
  N   N32       1.0  0.14882  0.33477  0.28785  1.0000
  C   C123      1.0  0.16501  0.32855  0.28591  1.0000
  N   N33       1.0  0.16860  0.30496  0.28565  1.0000
  N   N34       1.0  0.12050  0.32576  0.29069  1.0000
  H   H31       1.0  0.11866  0.34187  0.26839  1.0000
  N   N35       1.0  0.17780  0.34457  0.28697  1.0000
  H   H32       1.0  0.18874  0.33792  0.27629  1.0000
  N   N36       1.0  0.16087  0.26437  0.29357  1.0000
  H   H33       1.0  0.15389  0.25420  0.33071  1.0000
  C   C124      1.0  0.86197  0.73646  0.28405  1.0000
  N   N37       1.0  0.87798  0.72941  0.28685  1.0000
  C   C125      1.0  0.88210  0.70599  0.29303  1.0000
  N   N38       1.0  0.86966  0.68963  0.30028  1.0000
  C   C126      1.0  0.85348  0.69602  0.29980  1.0000
  N   N39       1.0  0.84998  0.71952  0.29132  1.0000
  N   N40       1.0  0.89809  0.69827  0.29316  1.0000
  H   H34       1.0  0.89968  0.68145  0.30700  1.0000
  N   N41       1.0  0.84059  0.68032  0.30779  1.0000
  H   H35       1.0  0.82964  0.68693  0.29690  1.0000
  N   N42       1.0  0.85798  0.75998  0.28385  1.0000
  H   H36       1.0  0.86507  0.77063  0.31848  1.0000
  C   C127      1.0  0.86097  0.28755  0.35673  1.0000
  N   N43       1.0  0.87691  0.29422  0.34277  1.0000
  C   C128      1.0  0.88119  0.31739  0.32842  1.0000
  N   N44       1.0  0.86893  0.33385  0.32503  1.0000
  C   C129      1.0  0.85277  0.32783  0.33678  1.0000
  N   N45       1.0  0.84913  0.30456  0.35259  1.0000
  N   N46       1.0  0.89719  0.32477  0.31849  1.0000
  H   H37       1.0  0.89879  0.34100  0.29642  1.0000
  N   N47       1.0  0.84004  0.34367  0.33304  1.0000
  H   H38       1.0  0.82913  0.33715  0.34732  1.0000
  N   N48       1.0  0.85681  0.26410  0.36403  1.0000
  H   H39       1.0  0.86344  0.25289  0.32983  1.0000
  C   C130      1.0  0.15709  0.73366  0.39142  1.0000
  N   N49       1.0  0.14099  0.72660  0.38950  1.0000
  C   C131      1.0  0.13670  0.70311  0.38877  1.0000
  N   N50       1.0  0.14899  0.68671  0.38746  1.0000
  C   C132      1.0  0.16522  0.69303  0.38667  1.0000
  N   N51       1.0  0.16896  0.71664  0.38906  1.0000
  N   N52       1.0  0.12076  0.69505  0.39121  1.0000
  H   H40       1.0  0.11935  0.67800  0.40243  1.0000
  N   N53       1.0  0.17775  0.67693  0.38202  1.0000
  H   H41       1.0  0.18886  0.68332  0.39221  1.0000
  N   N54       1.0  0.16126  0.75719  0.38678  1.0000
  H   H42       1.0  0.15401  0.76741  0.35197  1.0000
  C   C133      1.0  0.65669  0.78984  0.28375  1.0000
  N   N55       1.0  0.64067  0.79680  0.28946  1.0000
  C   C134      1.0  0.63651  0.82026  0.28896  1.0000
  N   N56       1.0  0.64884  0.83683  0.28482  1.0000
  C   C135      1.0  0.66503  0.83059  0.28191  1.0000
  N   N57       1.0  0.66861  0.80700  0.28118  1.0000
  N   N58       1.0  0.62052  0.82778  0.28931  1.0000
  H   H43       1.0  0.61861  0.84394  0.26755  1.0000
  N   N59       1.0  0.67783  0.84659  0.28299  1.0000
  H   H44       1.0  0.68877  0.83992  0.27186  1.0000
  N   N60       1.0  0.66084  0.76640  0.28939  1.0000
  H   H45       1.0  0.65381  0.75626  0.32637  1.0000
  C   C136      1.0  0.36186  0.23499  0.28415  1.0000
  N   N61       1.0  0.37791  0.22817  0.28692  1.0000
  C   C137      1.0  0.38220  0.20481  0.29270  1.0000
  N   N62       1.0  0.36987  0.18826  0.29953  1.0000
  C   C138      1.0  0.35365  0.19442  0.29903  1.0000
  N   N63       1.0  0.34999  0.21788  0.29097  1.0000
  N   N64       1.0  0.39825  0.19735  0.29262  1.0000
  H   H46       1.0  0.39996  0.18051  0.30564  1.0000
  N   N65       1.0  0.34085  0.17855  0.30660  1.0000
  H   H47       1.0  0.32986  0.18504  0.29560  1.0000
  N   N66       1.0  0.35773  0.25846  0.28423  1.0000
  H   H48       1.0  0.36479  0.26919  0.31862  1.0000
  C   C139      1.0  0.36129  0.78548  0.35310  1.0000
  N   N67       1.0  0.37724  0.79212  0.33898  1.0000
  C   C140      1.0  0.38151  0.81527  0.32417  1.0000
  N   N68       1.0  0.36925  0.83173  0.32060  1.0000
  C   C141      1.0  0.35310  0.82573  0.33247  1.0000
  N   N69       1.0  0.34946  0.80248  0.34872  1.0000
  N   N70       1.0  0.39751  0.82271  0.31449  1.0000
  H   H49       1.0  0.39908  0.83896  0.29248  1.0000
  N   N71       1.0  0.34038  0.84159  0.32877  1.0000
  H   H50       1.0  0.32947  0.83510  0.34315  1.0000
  N   N72       1.0  0.35711  0.76206  0.36114  1.0000
  H   H51       1.0  0.36362  0.75077  0.32662  1.0000
  C   C142      1.0  0.65682  0.23542  0.39391  1.0000
  N   N73       1.0  0.64076  0.22814  0.39156  1.0000
  C   C143      1.0  0.63663  0.20459  0.39052  1.0000
  N   N74       1.0  0.64903  0.18838  0.38923  1.0000
  C   C144      1.0  0.66521  0.19491  0.38880  1.0000
  N   N75       1.0  0.66880  0.21856  0.39151  1.0000
  N   N76       1.0  0.62076  0.19626  0.39216  1.0000
  H   H52       1.0  0.61947  0.17919  0.40329  1.0000
  N   N77       1.0  0.67785  0.17895  0.38375  1.0000
  H   H53       1.0  0.68892  0.18547  0.39366  1.0000
  N   N78       1.0  0.66084  0.25900  0.38939  1.0000
  H   H54       1.0  0.65357  0.26912  0.35428  1.0000
  C   C145      1.0  0.02497  0.38648  0.33546  1.0000
  N   N79       1.0  0.02320  0.41039  0.34678  1.0000
  C   C146      1.0  0.00802  0.42057  0.35463  1.0000
  N   N80       1.0  0.99454  0.40599  0.35209  1.0000
  C   C147      1.0  0.99579  0.38201  0.34289  1.0000
  N   N81       1.0  0.01111  0.37267  0.33376  1.0000
  N   N82       1.0  0.00545  0.44459  0.35943  1.0000
  H   H55       1.0  0.99396  0.44968  0.35467  1.0000
  N   N83       1.0  0.98232  0.36733  0.34028  1.0000
  H   H56       1.0  0.98380  0.35181  0.31217  1.0000
  N   N84       1.0  0.04030  0.37661  0.33046  1.0000
  H   H57       1.0  0.04939  0.38562  0.35726  1.0000
  C   C148      1.0  0.99279  0.63546  0.29375  1.0000
  N   N85       1.0  0.99431  0.61158  0.30660  1.0000
  C   C149      1.0  0.00907  0.60145  0.32742  1.0000
  N   N86       1.0  0.02236  0.61618  0.33713  1.0000
  C   C150      1.0  0.02139  0.64016  0.32669  1.0000
  N   N87       1.0  0.00646  0.64934  0.30477  1.0000
  N   N88       1.0  0.01132  0.57749  0.33891  1.0000
  H   H58       1.0  0.02264  0.57255  0.35127  1.0000
  N   N89       1.0  0.03458  0.65525  0.33705  1.0000
  H   H59       1.0  0.03291  0.67175  0.31878  1.0000
  N   N90       1.0  0.97763  0.64511  0.27765  1.0000
  H   H60       1.0  0.96805  0.63523  0.29267  1.0000
  C   C151      1.0  0.52448  0.88690  0.34230  1.0000
  N   N91       1.0  0.52255  0.91073  0.35485  1.0000
  C   C152      1.0  0.50731  0.92067  0.36329  1.0000
  N   N92       1.0  0.49392  0.90592  0.35990  1.0000
  C   C153      1.0  0.49534  0.88200  0.34938  1.0000
  N   N93       1.0  0.51072  0.87291  0.33977  1.0000
  N   N94       1.0  0.50464  0.94466  0.36892  1.0000
  H   H61       1.0  0.49311  0.94965  0.36497  1.0000
  N   N95       1.0  0.48199  0.86710  0.34538  1.0000
  H   H62       1.0  0.48367  0.85167  0.31686  1.0000
  N   N96       1.0  0.53989  0.87730  0.33649  1.0000
  H   H63       1.0  0.54892  0.88634  0.36364  1.0000
  C   C154      1.0  0.49313  0.13549  0.28914  1.0000
  N   N97       1.0  0.49455  0.11164  0.30306  1.0000
  C   C155      1.0  0.50928  0.10138  0.32337  1.0000
  N   N98       1.0  0.52270  0.11596  0.33148  1.0000
  C   C156      1.0  0.52185  0.13993  0.31982  1.0000
  N   N99       1.0  0.50692  0.14922  0.29857  1.0000
  N   N100      1.0  0.51135  0.07744  0.33640  1.0000
  H   H64       1.0  0.52267  0.07233  0.34778  1.0000
  N   N101      1.0  0.53510  0.15494  0.32932  1.0000
  H   H65       1.0  0.53343  0.17144  0.31116  1.0000
  N   N102      1.0  0.47797  0.14523  0.27391  1.0000
  H   H66       1.0  0.46840  0.13532  0.28878  1.0000
  C   C157      1.0  0.24929  0.12317  0.38691  1.0000
  N   N103      1.0  0.23786  0.14051  0.37481  1.0000
  C   C158      1.0  0.22144  0.13558  0.36696  1.0000
  N   N104      1.0  0.21660  0.11236  0.36794  1.0000
  C   C159      1.0  0.22759  0.09441  0.37973  1.0000
  N   N105      1.0  0.24386  0.10021  0.38894  1.0000
  N   N106      1.0  0.21012  0.15298  0.35127  1.0000
  H   H67       1.0  0.19998  0.14819  0.32070  1.0000
  N   N107      1.0  0.22307  0.07095  0.38040  1.0000
  H   H68       1.0  0.23132  0.05984  0.40293  1.0000
  N   N108      1.0  0.26568  0.12927  0.38660  1.0000
  H   H69       1.0  0.26827  0.14551  0.36756  1.0000
  C   C160      1.0  0.76953  0.90087  0.37414  1.0000
  N   N109      1.0  0.78089  0.88337  0.36316  1.0000
  C   C161      1.0  0.79737  0.88806  0.35821  1.0000
  N   N110      1.0  0.80240  0.91117  0.36097  1.0000
  C   C162      1.0  0.79150  0.92927  0.37183  1.0000
  N   N111      1.0  0.77514  0.92372  0.37807  1.0000
  N   N112      1.0  0.80861  0.87055  0.34307  1.0000
  H   H70       1.0  0.81882  0.87520  0.31288  1.0000
  N   N113      1.0  0.79623  0.95262  0.37411  1.0000
  H   H71       1.0  0.78796  0.96384  0.39571  1.0000
  N   N114      1.0  0.75312  0.89502  0.37081  1.0000
  H   H72       1.0  0.75053  0.87879  0.35151  1.0000
  C   C163      1.0  0.76781  0.12163  0.29811  1.0000
  N   N115      1.0  0.77911  0.13944  0.30800  1.0000
  C   C164      1.0  0.79561  0.13529  0.31185  1.0000
  N   N116      1.0  0.80074  0.11235  0.30878  1.0000
  C   C165      1.0  0.78991  0.09390  0.29900  1.0000
  N   N117      1.0  0.77349  0.09892  0.29391  1.0000
  N   N118      1.0  0.80675  0.15325  0.32529  1.0000
  H   H73       1.0  0.81721  0.14901  0.35335  1.0000
  N   N119      1.0  0.79484  0.07072  0.29638  1.0000
  H   H74       1.0  0.78655  0.05913  0.27662  1.0000
  N   N120      1.0  0.75144  0.12728  0.30185  1.0000
  H   H75       1.0  0.74897  0.14362  0.31972  1.0000
  C   C166      1.0  0.24912  0.89961  0.27933  1.0000
  N   N121      1.0  0.23760  0.88221  0.29241  1.0000
  C   C167      1.0  0.22128  0.88704  0.30301  1.0000
  N   N122      1.0  0.21663  0.91024  0.30372  1.0000
  C   C168      1.0  0.22769  0.92828  0.29104  1.0000
  N   N123      1.0  0.24387  0.92256  0.27908  1.0000
  N   N124      1.0  0.20995  0.86950  0.31982  1.0000
  H   H76       1.0  0.20005  0.87407  0.35260  1.0000
  N   N125      1.0  0.22332  0.95171  0.29177  1.0000
  H   H77       1.0  0.23161  0.96297  0.26955  1.0000
  N   N126      1.0  0.26541  0.89341  0.27622  1.0000
  H   H78       1.0  0.26787  0.87697  0.29269  1.0000
  C   C169      1.0  0.74886  0.62508  0.38747  1.0000
  N   N127      1.0  0.73744  0.64240  0.37499  1.0000
  C   C170      1.0  0.72103  0.63747  0.36674  1.0000
  N   N128      1.0  0.71618  0.61426  0.36770  1.0000
  C   C171      1.0  0.72716  0.59631  0.37986  1.0000
  N   N129      1.0  0.74343  0.60212  0.38947  1.0000
  N   N130      1.0  0.70973  0.65489  0.35061  1.0000
  H   H79       1.0  0.69963  0.65011  0.31970  1.0000
  N   N131      1.0  0.72264  0.57285  0.38049  1.0000
  H   H80       1.0  0.73088  0.56174  0.40323  1.0000
  N   N132      1.0  0.76524  0.63120  0.38753  1.0000
  H   H81       1.0  0.76783  0.64746  0.36861  1.0000
  C   C172      1.0  0.26937  0.39940  0.37415  1.0000
  N   N133      1.0  0.28069  0.38187  0.36326  1.0000
  C   C173      1.0  0.29718  0.38652  0.35800  1.0000
  N   N134      1.0  0.30224  0.40962  0.36039  1.0000
  C   C174      1.0  0.29136  0.42775  0.37116  1.0000
  N   N135      1.0  0.27500  0.42225  0.37772  1.0000
  N   N136      1.0  0.30839  0.36896  0.34296  1.0000
  H   H82       1.0  0.31860  0.37355  0.31261  1.0000
  N   N137      1.0  0.29614  0.45108  0.37317  1.0000
  H   H83       1.0  0.28789  0.46234  0.39478  1.0000
  N   N138      1.0  0.25295  0.39356  0.37122  1.0000
  H   H84       1.0  0.25035  0.37729  0.35253  1.0000
  C   C175      1.0  0.26765  0.61977  0.30011  1.0000
  N   N139      1.0  0.27889  0.63765  0.31041  1.0000
  C   C176      1.0  0.29541  0.63360  0.31421  1.0000
  N   N140      1.0  0.30062  0.61070  0.31056  1.0000
  C   C177      1.0  0.28984  0.59219  0.30036  1.0000
  N   N141      1.0  0.27341  0.59710  0.29537  1.0000
  N   N142      1.0  0.30652  0.65160  0.32772  1.0000
  H   H85       1.0  0.31704  0.64736  0.35511  1.0000
  N   N143      1.0  0.29485  0.56906  0.29710  1.0000
  H   H86       1.0  0.28659  0.55744  0.27724  1.0000
  N   N144      1.0  0.25126  0.62529  0.30372  1.0000
  H   H87       1.0  0.24873  0.64158  0.32197  1.0000
  C   C178      1.0  0.74868  0.40141  0.28068  1.0000
  N   N145      1.0  0.73715  0.38404  0.29383  1.0000
  C   C179      1.0  0.72082  0.38890  0.30417  1.0000
  N   N146      1.0  0.71619  0.41210  0.30454  1.0000
  C   C180      1.0  0.72727  0.43012  0.29175  1.0000
  N   N147      1.0  0.74345  0.42437  0.28008  1.0000
  N   N148      1.0  0.70947  0.37140  0.32112  1.0000
  H   H88       1.0  0.69956  0.37602  0.35375  1.0000
  N   N149      1.0  0.72291  0.45356  0.29221  1.0000
  H   H89       1.0  0.73123  0.46480  0.27007  1.0000
  N   N150      1.0  0.76497  0.39519  0.27791  1.0000
  H   H90       1.0  0.76742  0.37877  0.29468  1.0000
  C   C181      1.0  0.20036  0.19396  0.35011  1.0000
  C   C182      1.0  0.19358  0.21067  0.41049  1.0000
  C   C183      1.0  0.18409  0.22975  0.37698  1.0000
  H   H91       1.0  0.17981  0.24219  0.42107  1.0000
  N   N151      1.0  0.19637  0.20810  0.50315  1.0000
  O   O91       1.0  0.18303  0.20534  0.54499  1.0000
  O   O92       1.0  0.20392  0.22581  0.53492  1.0000
  C   C184      1.0  0.21150  0.17605  0.37845  1.0000
  O   O93       1.0  0.22421  0.18310  0.43127  1.0000
  C   C185      1.0  0.81800  0.82951  0.34135  1.0000
  C   C186      1.0  0.82501  0.81306  0.40196  1.0000
  C   C187      1.0  0.83455  0.79404  0.36850  1.0000
  H   H92       1.0  0.83900  0.78176  0.41272  1.0000
  N   N152      1.0  0.82242  0.81588  0.49469  1.0000
  O   O94       1.0  0.83583  0.81892  0.53553  1.0000
  O   O95       1.0  0.81505  0.79817  0.52764  1.0000
  C   C188      1.0  0.80697  0.84749  0.36983  1.0000
  O   O96       1.0  0.79420  0.84058  0.42239  1.0000
  C   C189      1.0  0.83539  0.23396  0.38146  1.0000
  C   C190      1.0  0.82876  0.21787  0.44504  1.0000
  C   C191      1.0  0.81931  0.19811  0.41520  1.0000
  H   H93       1.0  0.81421  0.18689  0.46166  1.0000
  N   N153      1.0  0.83170  0.22172  0.53695  1.0000
  O   O97       1.0  0.83941  0.20465  0.57119  1.0000
  O   O98       1.0  0.81844  0.22454  0.57915  1.0000
  C   C192      1.0  0.84314  0.25565  0.40682  1.0000
  O   O99       1.0  0.83445  0.26993  0.46221  1.0000
  C   C193      1.0  0.18207  0.78876  0.39120  1.0000
  C   C194      1.0  0.18908  0.80576  0.45025  1.0000
  C   C195      1.0  0.19784  0.82551  0.41484  1.0000
  H   H94       1.0  0.20331  0.83725  0.45819  1.0000
  N   N154      1.0  0.18724  0.80277  0.54344  1.0000
  O   O100      1.0  0.17958  0.81989  0.57770  1.0000
  O   O101      1.0  0.20100  0.80088  0.58166  1.0000
  C   C196      1.0  0.17527  0.76691  0.42215  1.0000
  O   O102      1.0  0.18470  0.75415  0.47919  1.0000
  C   C197      1.0  0.70008  0.69591  0.34846  1.0000
  C   C198      1.0  0.69327  0.71273  0.40831  1.0000
  C   C199      1.0  0.68389  0.73183  0.37412  1.0000
  H   H95       1.0  0.67958  0.74434  0.41786  1.0000
  N   N155      1.0  0.69591  0.71024  0.50113  1.0000
  O   O103      1.0  0.68250  0.70761  0.54243  1.0000
  O   O104      1.0  0.70347  0.72793  0.53297  1.0000
  C   C200      1.0  0.71113  0.67798  0.37754  1.0000
  O   O105      1.0  0.72379  0.68502  0.43073  1.0000
  C   C201      1.0  0.31770  0.32788  0.34153  1.0000
  C   C202      1.0  0.32472  0.31149  0.40225  1.0000
  C   C203      1.0  0.33424  0.29243  0.36888  1.0000
  H   H96       1.0  0.33872  0.28019  0.41318  1.0000
  N   N156      1.0  0.32218  0.31438  0.49499  1.0000
  O   O106      1.0  0.33561  0.31744  0.53561  1.0000
  O   O107      1.0  0.31481  0.29670  0.52823  1.0000
  C   C204      1.0  0.30671  0.34593  0.36996  1.0000
  O   O108      1.0  0.29394  0.33909  0.42273  1.0000
  C   C205      1.0  0.33562  0.73210  0.38080  1.0000
  C   C206      1.0  0.32904  0.71618  0.44518  1.0000
  C   C207      1.0  0.31940  0.69650  0.41643  1.0000
  H   H97       1.0  0.31436  0.68540  0.46347  1.0000
  N   N157      1.0  0.33224  0.72013  0.53680  1.0000
  O   O109      1.0  0.33993  0.70302  0.57085  1.0000
  O   O110      1.0  0.31909  0.72318  0.57987  1.0000
  C   C208      1.0  0.34353  0.75375  0.40517  1.0000
  O   O111      1.0  0.33505  0.76818  0.46097  1.0000
  C   C209      1.0  0.68155  0.29074  0.39363  1.0000
  C   C210      1.0  0.68853  0.30782  0.45244  1.0000
  C   C211      1.0  0.69729  0.32754  0.41675  1.0000
  H   H98       1.0  0.70274  0.33933  0.45995  1.0000
  N   N158      1.0  0.68667  0.30495  0.54566  1.0000
  O   O112      1.0  0.67899  0.32210  0.57956  1.0000
  O   O113      1.0  0.70041  0.30312  0.58403  1.0000
  C   C212      1.0  0.67479  0.26888  0.42490  1.0000
  O   O114      1.0  0.68424  0.25625  0.48224  1.0000
  C   C213      1.0  0.22354  0.40072  0.36874  1.0000
  C   C214      1.0  0.21106  0.39983  0.43492  1.0000
  C   C215      1.0  0.19541  0.38999  0.41299  1.0000
  H   H99       1.0  0.18678  0.38817  0.46248  1.0000
  N   N159      1.0  0.21475  0.40731  0.52282  1.0000
  O   O115      1.0  0.21352  0.39040  0.57733  1.0000
  O   O116      1.0  0.20536  0.42379  0.54740  1.0000
  C   C216      1.0  0.23995  0.40824  0.38771  1.0000
  O   O117      1.0  0.24212  0.43019  0.42337  1.0000
  C   C217      1.0  0.79471  0.62440  0.38966  1.0000
  C   C218      1.0  0.80697  0.62557  0.45698  1.0000
  C   C219      1.0  0.82268  0.63541  0.43613  1.0000
  H   H100      1.0  0.83115  0.63744  0.48630  1.0000
  N   N160      1.0  0.80300  0.61836  0.54484  1.0000
  O   O118      1.0  0.80403  0.63544  0.59874  1.0000
  O   O119      1.0  0.81232  0.60198  0.57101  1.0000
  C   C220      1.0  0.77825  0.61681  0.40714  1.0000
  O   O120      1.0  0.77603  0.59493  0.44330  1.0000
  C   C221      1.0  0.82597  0.38029  0.29795  1.0000
  C   C222      1.0  0.81465  0.38225  0.36967  1.0000
  C   C223      1.0  0.79908  0.39278  0.35439  1.0000
  H   H101      1.0  0.79087  0.39372  0.40622  1.0000
  N   N161      1.0  0.81905  0.37386  0.45547  1.0000
  O   O121      1.0  0.80923  0.35796  0.48252  1.0000
  O   O122      1.0  0.81931  0.39048  0.51154  1.0000
  C   C224      1.0  0.84074  0.36686  0.30619  1.0000
  O   O123      1.0  0.85477  0.37622  0.27096  1.0000
  C   C225      1.0  0.19097  0.63995  0.34318  1.0000
  C   C226      1.0  0.20286  0.63736  0.41177  1.0000
  C   C227      1.0  0.21813  0.62651  0.39180  1.0000
  H   H102      1.0  0.22681  0.62520  0.44125  1.0000
  N   N162      1.0  0.19933  0.64554  0.49898  1.0000
  O   O124      1.0  0.20956  0.66110  0.52421  1.0000
  O   O125      1.0  0.19936  0.62872  0.55418  1.0000
  C   C228      1.0  0.17647  0.65367  0.35625  1.0000
  O   O126      1.0  0.16206  0.64468  0.32438  1.0000
  C   C229      1.0  0.72370  0.90221  0.36809  1.0000
  C   C230      1.0  0.71118  0.90118  0.43398  1.0000
  C   C231      1.0  0.69552  0.89148  0.41134  1.0000
  H   H103      1.0  0.68685  0.88956  0.46059  1.0000
  N   N163      1.0  0.71483  0.90836  0.52228  1.0000
  O   O127      1.0  0.71352  0.89129  0.57603  1.0000
  O   O128      1.0  0.70546  0.92482  0.54739  1.0000
  C   C232      1.0  0.74011  0.90965  0.38765  1.0000
  O   O129      1.0  0.74226  0.93151  0.42415  1.0000
  C   C233      1.0  0.29515  0.12244  0.38853  1.0000
  C   C234      1.0  0.30741  0.12368  0.45585  1.0000
  C   C235      1.0  0.32311  0.13353  0.43492  1.0000
  H   H104      1.0  0.33157  0.13564  0.48511  1.0000
  N   N164      1.0  0.30344  0.11652  0.54377  1.0000
  O   O130      1.0  0.30446  0.13364  0.59751  1.0000
  O   O131      1.0  0.31278  0.10018  0.57011  1.0000
  C   C236      1.0  0.27869  0.11487  0.40611  1.0000
  O   O132      1.0  0.27647  0.09301  0.44253  1.0000
  C   C237      1.0  0.32637  0.87831  0.29451  1.0000
  C   C238      1.0  0.31513  0.88027  0.36658  1.0000
  C   C239      1.0  0.29957  0.89089  0.35190  1.0000
  H   H105      1.0  0.29141  0.89182  0.40396  1.0000
  N   N165      1.0  0.31959  0.87177  0.45214  1.0000
  O   O133      1.0  0.30977  0.85590  0.47925  1.0000
  O   O134      1.0  0.31994  0.88834  0.50844  1.0000
  C   C240      1.0  0.34111  0.86480  0.30216  1.0000
  O   O135      1.0  0.35514  0.87415  0.26688  1.0000
  C   C241      1.0  0.69120  0.14212  0.34399  1.0000
  C   C242      1.0  0.70321  0.13962  0.41203  1.0000
  C   C243      1.0  0.71845  0.12876  0.39146  1.0000
  H   H106      1.0  0.72721  0.12748  0.44051  1.0000
  N   N166      1.0  0.69982  0.14785  0.49933  1.0000
  O   O136      1.0  0.71009  0.16343  0.52396  1.0000
  O   O137      1.0  0.69994  0.13106  0.55465  1.0000
  C   C244      1.0  0.67666  0.15570  0.35772  1.0000
  O   O138      1.0  0.66225  0.14654  0.32646  1.0000
  C   C245      1.0  0.09109  0.32329  0.31530  1.0000
  C   C246      1.0  0.08167  0.32880  0.39199  1.0000
  C   C247      1.0  0.06615  0.33992  0.38119  1.0000
  H   H107      1.0  0.05938  0.34391  0.43683  1.0000
  N   N167      1.0  0.08808  0.32385  0.47775  1.0000
  O   O139      1.0  0.08990  0.34254  0.52291  1.0000
  O   O140      1.0  0.07883  0.30975  0.51997  1.0000
  C   C248      1.0  0.10712  0.31341  0.32131  1.0000
  O   O141      1.0  0.10877  0.29265  0.36627  1.0000
  C   C249      1.0  0.92755  0.70041  0.26413  1.0000
  C   C250      1.0  0.93439  0.68821  0.33798  1.0000
  C   C251      1.0  0.94992  0.67709  0.32864  1.0000
  H   H108      1.0  0.95491  0.66882  0.38307  1.0000
  N   N168      1.0  0.92600  0.68810  0.42088  1.0000
  O   O142      1.0  0.92274  0.66726  0.44629  1.0000
  O   O143      1.0  0.93434  0.69836  0.48041  1.0000
  C   C252      1.0  0.91170  0.71110  0.26825  1.0000
  O   O144      1.0  0.91026  0.73332  0.23396  1.0000
  C   C253      1.0  0.95419  0.35541  0.37503  1.0000
  C   C254      1.0  0.94584  0.34675  0.45159  1.0000
  C   C255      1.0  0.93195  0.33160  0.44047  1.0000
  H   H109      1.0  0.92572  0.32588  0.49596  1.0000
  N   N169      1.0  0.95154  0.35307  0.53770  1.0000
  O   O145      1.0  0.95578  0.33505  0.58159  1.0000
  O   O146      1.0  0.94069  0.36406  0.58097  1.0000
  C   C256      1.0  0.96765  0.37160  0.38153  1.0000
  O   O147      1.0  0.96552  0.39113  0.43320  1.0000
  C   C257      1.0  0.06263  0.66646  0.38042  1.0000
  C   C258      1.0  0.07241  0.66894  0.45832  1.0000
  C   C259      1.0  0.08655  0.68388  0.45612  1.0000
  H   H110      1.0  0.09377  0.68513  0.51203  1.0000
  N   N170      1.0  0.06795  0.65668  0.53739  1.0000
  O   O148      1.0  0.06495  0.67088  0.59993  1.0000
  O   O149      1.0  0.07910  0.64265  0.56199  1.0000
  C   C260      1.0  0.04931  0.64984  0.37590  1.0000
  O   O150      1.0  0.05205  0.62783  0.40964  1.0000
  C   C261      1.0  0.59116  0.82511  0.31598  1.0000
  C   C262      1.0  0.58178  0.83007  0.39335  1.0000
  C   C263      1.0  0.56614  0.84093  0.38382  1.0000
  H   H111      1.0  0.55940  0.84452  0.43994  1.0000
  N   N171      1.0  0.58833  0.82485  0.47857  1.0000
  O   O151      1.0  0.59002  0.84335  0.52490  1.0000
  O   O152      1.0  0.57926  0.81037  0.52013  1.0000
  C   C264      1.0  0.60724  0.81536  0.32079  1.0000
  O   O153      1.0  0.60905  0.79450  0.36495  1.0000
  C   C265      1.0  0.42770  0.20008  0.26380  1.0000
  C   C266      1.0  0.43463  0.18772  0.33701  1.0000
  C   C267      1.0  0.45023  0.17685  0.32704  1.0000
  H   H112      1.0  0.45528  0.16843  0.38100  1.0000
  N   N172      1.0  0.42624  0.18718  0.41990  1.0000
  O   O154      1.0  0.42312  0.16620  0.44422  1.0000
  O   O155      1.0  0.43452  0.19733  0.47995  1.0000
  C   C268      1.0  0.41177  0.21049  0.26841  1.0000
  O   O156      1.0  0.41017  0.23284  0.23553  1.0000
  C   C269      1.0  0.45387  0.85456  0.37708  1.0000
  C   C270      1.0  0.44535  0.84556  0.45258  1.0000
  C   C271      1.0  0.43171  0.83006  0.43972  1.0000
  H   H113      1.0  0.42534  0.82411  0.49445  1.0000
  N   N173      1.0  0.45066  0.85190  0.53940  1.0000
  O   O157      1.0  0.45498  0.83394  0.58338  1.0000
  O   O158      1.0  0.43952  0.86253  0.58173  1.0000
  C   C272      1.0  0.46715  0.87102  0.38529  1.0000
  O   O159      1.0  0.46468  0.89039  0.43729  1.0000
  C   C273      1.0  0.56302  0.16631  0.37425  1.0000
  C   C274      1.0  0.57248  0.16890  0.45326  1.0000
  C   C275      1.0  0.58644  0.18419  0.45290  1.0000
  H   H114      1.0  0.59343  0.18553  0.50964  1.0000
  N   N174      1.0  0.56787  0.15643  0.53157  1.0000
  O   O160      1.0  0.56445  0.17046  0.59404  1.0000
  O   O161      1.0  0.57908  0.14263  0.55715  1.0000
  C   C276      1.0  0.54982  0.14953  0.36823  1.0000
  O   O162      1.0  0.55259  0.12751  0.40181  1.0000
  C   C277      1.0  0.01287  0.48657  0.36130  1.0000
  C   C278      1.0  0.01806  0.50384  0.42448  1.0000
  C   C279      1.0  0.01346  0.52792  0.41237  1.0000
  H   H115      1.0  0.01698  0.54011  0.45954  1.0000
  N   N175      1.0  0.02722  0.49669  0.50020  1.0000
  O   O163      1.0  0.01956  0.50092  0.57121  1.0000
  O   O164      1.0  0.04107  0.50697  0.50333  1.0000
  C   C280      1.0  0.01708  0.46208  0.36905  1.0000
  O   O165      1.0  0.03315  0.45674  0.38401  1.0000
  C   C281      1.0  0.51201  0.98671  0.36832  1.0000
  C   C282      1.0  0.51765  0.00433  0.42899  1.0000
  C   C283      1.0  0.51324  0.02841  0.41500  1.0000
  H   H116      1.0  0.51711  0.04088  0.46033  1.0000
  N   N176      1.0  0.52712  0.99757  0.50413  1.0000
  O   O166      1.0  0.51985  0.00248  0.57570  1.0000
  O   O167      1.0  0.54107  0.00758  0.50426  1.0000
  C   C284      1.0  0.51623  0.96225  0.37734  1.0000
  O   O168      1.0  0.53237  0.95702  0.39044  1.0000
  C   C285      1.0  0.20723  0.98591  0.33322  1.0000
  C   C286      1.0  0.20674  0.99778  0.41646  1.0000
  C   C287      1.0  0.20672  0.02298  0.41791  1.0000
  H   H117      1.0  0.20692  0.03151  0.47821  1.0000
  N   N177      1.0  0.20728  0.98447  0.49657  1.0000
  O   O169      1.0  0.22005  0.98918  0.54110  1.0000
  O   O170      1.0  0.19481  0.98831  0.54422  1.0000
  C   C288      1.0  0.20924  0.96091  0.32745  1.0000
  O   O171      1.0  0.19826  0.94706  0.37222  1.0000
  C   C289      1.0  0.81205  0.03730  0.33111  1.0000
  C   C290      1.0  0.81277  0.02540  0.41422  1.0000
  C   C291      1.0  0.81302  0.00021  0.41534  1.0000
  H   H118      1.0  0.81292  0.99161  0.47551  1.0000
  N   N178      1.0  0.81220  0.03865  0.49445  1.0000
  O   O172      1.0  0.79952  0.03368  0.53934  1.0000
  O   O173      1.0  0.82476  0.03501  0.54166  1.0000
  C   C292      1.0  0.80960  0.06220  0.32590  1.0000
  O   O174      1.0  0.82071  0.07632  0.36841  1.0000
  C   C293      1.0  0.70686  0.48781  0.33334  1.0000
  C   C294      1.0  0.70630  0.49969  0.41656  1.0000
  C   C295      1.0  0.70627  0.52489  0.41795  1.0000
  H   H119      1.0  0.70643  0.53343  0.47824  1.0000
  N   N179      1.0  0.70679  0.48640  0.49671  1.0000
  O   O175      1.0  0.71953  0.49112  0.54147  1.0000
  O   O176      1.0  0.69429  0.49023  0.54410  1.0000
  C   C296      1.0  0.70882  0.46280  0.32769  1.0000
  O   O177      1.0  0.69781  0.44899  0.37239  1.0000
  C   C297      1.0  0.31218  0.53571  0.33090  1.0000
  C   C298      1.0  0.31278  0.52373  0.41388  1.0000
  C   C299      1.0  0.31298  0.49854  0.41469  1.0000
  H   H120      1.0  0.31277  0.48989  0.47475  1.0000
  N   N180      1.0  0.31212  0.53692  0.49424  1.0000
  O   O178      1.0  0.29937  0.53194  0.53858  1.0000
  O   O179      1.0  0.32461  0.53319  0.54189  1.0000
  C   C300      1.0  0.30968  0.56059  0.32591  1.0000
  O   O180      1.0  0.32076  0.57470  0.36871  1.0000
