data_image0
_chemical_formula_structural       N12C4HCH3C4HCH3C4HCH3C4HCH3C4HCH3C4HCH3C4HCH3C4HCH3C4HCH3C4HCH3C4HCH3C4HCH3CNCNCNC18H12CNCNCNC18H12CNCNCNC18H12CNCNCNC18H12CNCNCNC18H12CNCNCNC18H12CNCNCNC18H12CNCNCNC18H12CNCNCNC18H12CNCNCNC18H12CNCNCNC18H12CNCNCNC18H12C4HCH3C4HCH3C4HCH3C4HCH3C4HCH3C4HCH3N24
_chemical_formula_sum              "N72 C342 H216"
_cell_length_a       74.2249
_cell_length_b       74.225
_cell_length_c       15.0051
_cell_angle_alpha    90
_cell_angle_beta     90
_cell_angle_gamma    120

_space_group_name_H-M_alt    "P 1"
_space_group_IT_number       1

loop_
  _space_group_symop_operation_xyz
  'x, y, z'

loop_
  _atom_site_type_symbol
  _atom_site_label
  _atom_site_symmetry_multiplicity
  _atom_site_fract_x
  _atom_site_fract_y
  _atom_site_fract_z
  _atom_site_occupancy
  N   N1        1.0  0.19370  0.37478  0.27653  1.0000
  N   N2        1.0  0.20382  0.39507  0.27072  1.0000
  N   N3        1.0  0.61138  0.80523  0.27566  1.0000
  N   N4        1.0  0.59109  0.79505  0.26981  1.0000
  N   N5        1.0  0.18060  0.79219  0.27873  1.0000
  N   N6        1.0  0.19076  0.78207  0.27310  1.0000
  N   N7        1.0  0.79837  0.60694  0.27107  1.0000
  N   N8        1.0  0.78829  0.58665  0.26512  1.0000
  N   N9        1.0  0.37926  0.17618  0.27972  1.0000
  N   N10       1.0  0.39955  0.18633  0.27424  1.0000
  N   N11       1.0  0.80930  0.18881  0.27392  1.0000
  N   N12       1.0  0.79912  0.19892  0.26802  1.0000
  C   C1        1.0  0.18289  0.19946  0.31191  1.0000
  C   C2        1.0  0.19609  0.20182  0.23961  1.0000
  C   C3        1.0  0.20718  0.19093  0.23790  1.0000
  C   C4        1.0  0.20470  0.17785  0.31161  1.0000
  H   H1        1.0  0.19728  0.21117  0.18714  1.0000
  C   C5        1.0  0.22004  0.19265  0.15885  1.0000
  H   H2        1.0  0.21870  0.20192  0.10553  1.0000
  H   H3        1.0  0.21509  0.17718  0.13211  1.0000
  H   H4        1.0  0.23640  0.20000  0.17749  1.0000
  C   C6        1.0  0.78668  0.96986  0.31193  1.0000
  C   C7        1.0  0.78434  0.98069  0.23955  1.0000
  C   C8        1.0  0.79520  0.00268  0.23793  1.0000
  C   C9        1.0  0.80823  0.01328  0.31177  1.0000
  H   H5        1.0  0.77502  0.97254  0.18704  1.0000
  C   C10       1.0  0.79350  0.01382  0.15882  1.0000
  H   H6        1.0  0.78427  0.00321  0.10543  1.0000
  H   H7        1.0  0.80898  0.02435  0.13223  1.0000
  H   H8        1.0  0.78612  0.02281  0.17735  1.0000
  C   C11       1.0  0.01619  0.80323  0.31141  1.0000
  C   C12       1.0  0.00534  0.79010  0.23895  1.0000
  C   C13       1.0  0.98335  0.77900  0.23737  1.0000
  C   C14       1.0  0.97277  0.78141  0.31130  1.0000
  H   H9        1.0  0.01349  0.78893  0.18640  1.0000
  C   C15       1.0  0.97219  0.76618  0.15823  1.0000
  H   H10       1.0  0.98279  0.76756  0.10479  1.0000
  H   H11       1.0  0.96168  0.77116  0.13174  1.0000
  H   H12       1.0  0.96318  0.74981  0.17670  1.0000
  C   C16       1.0  0.80752  0.78205  0.31250  1.0000
  C   C17       1.0  0.79438  0.77973  0.24001  1.0000
  C   C18       1.0  0.78330  0.79064  0.23815  1.0000
  C   C19       1.0  0.78573  0.80368  0.31191  1.0000
  H   H13       1.0  0.79323  0.77040  0.18752  1.0000
  C   C20       1.0  0.77051  0.78897  0.15891  1.0000
  H   H14       1.0  0.77189  0.77971  0.10561  1.0000
  H   H15       1.0  0.77551  0.80444  0.13225  1.0000
  H   H16       1.0  0.75414  0.78162  0.17730  1.0000
  C   C21       1.0  0.20386  0.01178  0.31139  1.0000
  C   C22       1.0  0.20617  0.00092  0.23905  1.0000
  C   C23       1.0  0.19527  0.97893  0.23750  1.0000
  C   C24       1.0  0.18225  0.96835  0.31139  1.0000
  H   H17       1.0  0.21549  0.00905  0.18650  1.0000
  C   C25       1.0  0.19694  0.96775  0.15845  1.0000
  H   H18       1.0  0.20617  0.97834  0.10501  1.0000
  H   H19       1.0  0.18146  0.95723  0.13191  1.0000
  H   H20       1.0  0.20430  0.95875  0.17703  1.0000
  C   C26       1.0  0.97425  0.17852  0.31222  1.0000
  C   C27       1.0  0.98508  0.19169  0.23983  1.0000
  C   C28       1.0  0.00707  0.20280  0.23812  1.0000
  C   C29       1.0  0.01768  0.20036  0.31188  1.0000
  H   H21       1.0  0.97692  0.19288  0.18738  1.0000
  C   C30       1.0  0.01820  0.21565  0.15902  1.0000
  H   H22       1.0  0.00758  0.21428  0.10568  1.0000
  H   H23       1.0  0.02871  0.21069  0.13234  1.0000
  H   H24       1.0  0.02720  0.23201  0.17757  1.0000
  C   C31       1.0  0.21220  0.61724  0.34336  1.0000
  C   C32       1.0  0.20855  0.60684  0.26062  1.0000
  C   C33       1.0  0.20941  0.58823  0.25369  1.0000
  C   C34       1.0  0.21330  0.58013  0.33259  1.0000
  H   H25       1.0  0.20757  0.61394  0.20387  1.0000
  C   C35       1.0  0.20797  0.57870  0.16493  1.0000
  H   H26       1.0  0.20515  0.58694  0.11132  1.0000
  H   H27       1.0  0.19516  0.56265  0.16493  1.0000
  H   H28       1.0  0.22243  0.57883  0.15010  1.0000
  C   C36       1.0  0.36887  0.58143  0.34348  1.0000
  C   C37       1.0  0.37923  0.58819  0.26068  1.0000
  C   C38       1.0  0.39788  0.60761  0.25364  1.0000
  C   C39       1.0  0.40597  0.61960  0.33256  1.0000
  H   H29       1.0  0.37216  0.58005  0.20401  1.0000
  C   C40       1.0  0.40744  0.61567  0.16491  1.0000
  H   H30       1.0  0.39919  0.60460  0.11134  1.0000
  H   H31       1.0  0.42347  0.61887  0.16503  1.0000
  H   H32       1.0  0.40736  0.63002  0.14994  1.0000
  C   C41       1.0  0.40473  0.77384  0.34408  1.0000
  C   C42       1.0  0.39811  0.77760  0.26125  1.0000
  C   C43       1.0  0.37867  0.77677  0.25387  1.0000
  C   C44       1.0  0.36655  0.77281  0.33243  1.0000
  H   H33       1.0  0.40627  0.77865  0.20468  1.0000
  C   C45       1.0  0.37071  0.77835  0.16501  1.0000
  H   H34       1.0  0.38185  0.78126  0.11166  1.0000
  H   H35       1.0  0.36746  0.79115  0.16522  1.0000
  H   H36       1.0  0.35641  0.76391  0.14963  1.0000
  C   C46       1.0  0.77833  0.36446  0.34364  1.0000
  C   C47       1.0  0.78207  0.37483  0.26076  1.0000
  C   C48       1.0  0.78136  0.39350  0.25334  1.0000
  C   C49       1.0  0.77747  0.40168  0.33197  1.0000
  H   H37       1.0  0.78312  0.36770  0.20425  1.0000
  C   C50       1.0  0.78295  0.40304  0.16448  1.0000
  H   H38       1.0  0.78583  0.39479  0.11114  1.0000
  H   H39       1.0  0.79578  0.41908  0.16471  1.0000
  H   H40       1.0  0.76854  0.40295  0.14912  1.0000
  C   C51       1.0  0.62188  0.40029  0.34464  1.0000
  C   C52       1.0  0.61150  0.39366  0.26181  1.0000
  C   C53       1.0  0.59285  0.37425  0.25434  1.0000
  C   C54       1.0  0.58472  0.36210  0.33282  1.0000
  H   H41       1.0  0.61856  0.40190  0.20533  1.0000
  C   C55       1.0  0.58329  0.36635  0.16548  1.0000
  H   H42       1.0  0.59153  0.37751  0.11221  1.0000
  H   H43       1.0  0.56725  0.36315  0.16583  1.0000
  H   H44       1.0  0.58337  0.35203  0.14988  1.0000
  C   C56       1.0  0.58580  0.20773  0.34286  1.0000
  C   C57       1.0  0.59261  0.20414  0.26015  1.0000
  C   C58       1.0  0.61208  0.20500  0.25337  1.0000
  C   C59       1.0  0.62402  0.20886  0.33244  1.0000
  H   H45       1.0  0.58457  0.20320  0.20333  1.0000
  C   C60       1.0  0.62023  0.20362  0.16468  1.0000
  H   H46       1.0  0.60921  0.20083  0.11096  1.0000
  H   H47       1.0  0.62348  0.19081  0.16463  1.0000
  H   H48       1.0  0.63457  0.21809  0.15006  1.0000
  C   C61       1.0  0.13824  0.24344  0.33472  1.0000
  N   N13       1.0  0.14841  0.26458  0.33534  1.0000
  C   C62       1.0  0.13837  0.27564  0.33803  1.0000
  N   N14       1.0  0.11723  0.26459  0.33932  1.0000
  C   C63       1.0  0.10611  0.24344  0.33858  1.0000
  N   N15       1.0  0.11709  0.23327  0.33620  1.0000
  C   C64       1.0  0.14947  0.29783  0.33919  1.0000
  C   C65       1.0  0.17146  0.30934  0.33158  1.0000
  C   C66       1.0  0.18241  0.33123  0.33410  1.0000
  C   C67       1.0  0.17170  0.34230  0.34581  1.0000
  C   C68       1.0  0.14978  0.33103  0.35132  1.0000
  C   C69       1.0  0.13888  0.30918  0.34830  1.0000
  C   C70       1.0  0.14937  0.23247  0.33025  1.0000
  C   C71       1.0  0.17018  0.24242  0.29942  1.0000
  C   C72       1.0  0.18111  0.23155  0.29269  1.0000
  C   C73       1.0  0.17177  0.21040  0.31800  1.0000
  C   C74       1.0  0.15116  0.20055  0.35094  1.0000
  C   C75       1.0  0.14006  0.21131  0.35575  1.0000
  C   C76       1.0  0.08392  0.23254  0.33631  1.0000
  C   C77       1.0  0.07224  0.21051  0.33247  1.0000
  C   C78       1.0  0.05040  0.19986  0.32578  1.0000
  C   C79       1.0  0.03956  0.21095  0.32145  1.0000
  C   C80       1.0  0.05096  0.23284  0.32836  1.0000
  C   C81       1.0  0.07276  0.24343  0.33537  1.0000
  H   H49       1.0  0.19617  0.23943  0.27058  1.0000
  H   H50       1.0  0.17757  0.25766  0.27977  1.0000
  H   H51       1.0  0.14384  0.18524  0.36976  1.0000
  H   H52       1.0  0.12512  0.20353  0.37929  1.0000
  H   H53       1.0  0.07951  0.20188  0.33318  1.0000
  H   H54       1.0  0.04253  0.18396  0.32141  1.0000
  H   H55       1.0  0.08036  0.25933  0.33864  1.0000
  H   H56       1.0  0.04349  0.24128  0.32807  1.0000
  H   H57       1.0  0.12302  0.30168  0.35347  1.0000
  H   H58       1.0  0.14154  0.33865  0.35723  1.0000
  H   H59       1.0  0.19830  0.33900  0.32925  1.0000
  H   H60       1.0  0.17986  0.30193  0.32423  1.0000
  C   C82       1.0  0.74271  0.88123  0.33475  1.0000
  N   N16       1.0  0.72157  0.87027  0.33535  1.0000
  C   C83       1.0  0.71049  0.84916  0.33801  1.0000
  N   N17       1.0  0.72154  0.83906  0.33929  1.0000
  C   C84       1.0  0.74269  0.84908  0.33855  1.0000
  N   N18       1.0  0.75287  0.87023  0.33622  1.0000
  C   C85       1.0  0.68831  0.83809  0.33909  1.0000
  C   C86       1.0  0.67681  0.84858  0.33121  1.0000
  C   C87       1.0  0.65492  0.83766  0.33359  1.0000
  C   C88       1.0  0.64384  0.81589  0.34545  1.0000
  C   C89       1.0  0.65509  0.80522  0.35132  1.0000
  C   C90       1.0  0.67694  0.81616  0.34839  1.0000
  C   C91       1.0  0.75368  0.90332  0.33026  1.0000
  C   C92       1.0  0.74374  0.91418  0.29933  1.0000
  C   C93       1.0  0.75460  0.93599  0.29264  1.0000
  C   C94       1.0  0.77575  0.94780  0.31799  1.0000
  C   C95       1.0  0.78560  0.93705  0.35098  1.0000
  C   C96       1.0  0.77484  0.91517  0.35579  1.0000
  C   C97       1.0  0.75357  0.83778  0.33627  1.0000
  C   C98       1.0  0.77561  0.84812  0.33255  1.0000
  C   C99       1.0  0.78625  0.83692  0.32580  1.0000
  C   C100      1.0  0.77514  0.81499  0.32139  1.0000
  C   C101      1.0  0.75325  0.80451  0.32817  1.0000
  C   C102      1.0  0.74267  0.81573  0.33518  1.0000
  H   H61       1.0  0.74673  0.94316  0.27048  1.0000
  H   H62       1.0  0.72849  0.90633  0.27971  1.0000
  H   H63       1.0  0.80090  0.94503  0.36986  1.0000
  H   H64       1.0  0.78262  0.90803  0.37941  1.0000
  H   H65       1.0  0.78424  0.86401  0.33335  1.0000
  H   H66       1.0  0.80214  0.84493  0.32159  1.0000
  H   H67       1.0  0.72678  0.80745  0.33836  1.0000
  H   H68       1.0  0.74480  0.78860  0.32780  1.0000
  H   H69       1.0  0.68442  0.80778  0.35380  1.0000
  H   H70       1.0  0.64745  0.78936  0.35746  1.0000
  H   H71       1.0  0.64717  0.84579  0.32852  1.0000
  H   H72       1.0  0.68424  0.86439  0.32374  1.0000
  C   C103      1.0  0.10481  0.84779  0.33464  1.0000
  N   N19       1.0  0.11578  0.83762  0.33544  1.0000
  C   C104      1.0  0.13690  0.84769  0.33824  1.0000
  N   N20       1.0  0.14696  0.86882  0.33946  1.0000
  C   C105      1.0  0.13692  0.87993  0.33855  1.0000
  N   N21       1.0  0.11578  0.86894  0.33606  1.0000
  C   C106      1.0  0.14803  0.83663  0.33965  1.0000
  C   C107      1.0  0.13759  0.81462  0.33339  1.0000
  C   C108      1.0  0.14859  0.80374  0.33624  1.0000
  C   C109      1.0  0.17040  0.81453  0.34690  1.0000
  C   C110      1.0  0.18101  0.83647  0.35092  1.0000
  C   C111      1.0  0.17000  0.84730  0.34766  1.0000
  C   C112      1.0  0.08271  0.83667  0.33005  1.0000
  C   C113      1.0  0.07184  0.81588  0.29900  1.0000
  C   C114      1.0  0.05004  0.80498  0.29210  1.0000
  C   C115      1.0  0.03825  0.81433  0.31750  1.0000
  C   C116      1.0  0.04901  0.83492  0.35066  1.0000
  C   C117      1.0  0.07088  0.84600  0.35561  1.0000
  C   C118      1.0  0.14820  0.90212  0.33623  1.0000
  C   C119      1.0  0.13785  0.91379  0.33233  1.0000
  C   C120      1.0  0.14903  0.93563  0.32552  1.0000
  C   C121      1.0  0.17096  0.94647  0.32115  1.0000
  C   C122      1.0  0.18146  0.93508  0.32815  1.0000
  C   C123      1.0  0.17026  0.91328  0.33527  1.0000
  H   H73       1.0  0.04285  0.78994  0.26985  1.0000
  H   H74       1.0  0.07969  0.80849  0.27931  1.0000
  H   H75       1.0  0.04104  0.84224  0.36955  1.0000
  H   H76       1.0  0.07803  0.86092  0.37931  1.0000
  H   H77       1.0  0.12195  0.90652  0.33305  1.0000
  H   H78       1.0  0.14100  0.94350  0.32109  1.0000
  H   H79       1.0  0.17855  0.90569  0.33857  1.0000
  H   H80       1.0  0.19737  0.94256  0.32780  1.0000
  H   H81       1.0  0.17834  0.86318  0.35173  1.0000
  H   H82       1.0  0.19689  0.84477  0.35584  1.0000
  H   H83       1.0  0.14050  0.78783  0.33241  1.0000
  H   H84       1.0  0.12176  0.80616  0.32689  1.0000
  C   C124      1.0  0.85221  0.73811  0.33567  1.0000
  N   N22       1.0  0.84206  0.71698  0.33611  1.0000
  C   C125      1.0  0.85213  0.70593  0.33861  1.0000
  N   N23       1.0  0.87327  0.71700  0.33980  1.0000
  C   C126      1.0  0.88436  0.73815  0.33920  1.0000
  N   N24       1.0  0.87335  0.74830  0.33705  1.0000
  C   C127      1.0  0.84103  0.68374  0.33925  1.0000
  C   C128      1.0  0.81905  0.67226  0.33108  1.0000
  C   C129      1.0  0.80809  0.65037  0.33256  1.0000
  C   C130      1.0  0.81880  0.63930  0.34371  1.0000
  C   C131      1.0  0.84069  0.65050  0.35058  1.0000
  C   C132      1.0  0.85161  0.67237  0.34834  1.0000
  C   C133      1.0  0.84105  0.74906  0.33121  1.0000
  C   C134      1.0  0.82026  0.73911  0.30017  1.0000
  C   C135      1.0  0.80932  0.74997  0.29337  1.0000
  C   C136      1.0  0.81864  0.77112  0.31872  1.0000
  C   C137      1.0  0.83923  0.78097  0.35186  1.0000
  C   C138      1.0  0.85034  0.77021  0.35678  1.0000
  C   C139      1.0  0.90654  0.74910  0.33667  1.0000
  C   C140      1.0  0.91818  0.77113  0.33271  1.0000
  C   C141      1.0  0.94001  0.78183  0.32562  1.0000
  C   C142      1.0  0.95089  0.77077  0.32112  1.0000
  C   C143      1.0  0.93954  0.74889  0.32816  1.0000
  C   C144      1.0  0.91775  0.73825  0.33549  1.0000
  H   H85       1.0  0.79428  0.74210  0.27108  1.0000
  H   H86       1.0  0.81288  0.72387  0.28051  1.0000
  H   H87       1.0  0.84654  0.79627  0.37073  1.0000
  H   H88       1.0  0.86527  0.77800  0.38047  1.0000
  H   H89       1.0  0.91088  0.77973  0.33351  1.0000
  H   H90       1.0  0.94785  0.79772  0.32121  1.0000
  H   H91       1.0  0.91018  0.72236  0.33886  1.0000
  H   H92       1.0  0.94705  0.74048  0.32772  1.0000
  H   H93       1.0  0.86745  0.67985  0.35425  1.0000
  H   H94       1.0  0.84887  0.64283  0.35722  1.0000
  H   H95       1.0  0.79221  0.64261  0.32722  1.0000
  H   H96       1.0  0.81067  0.67969  0.32394  1.0000
  C   C145      1.0  0.24785  0.10041  0.33429  1.0000
  N   N25       1.0  0.26899  0.11139  0.33519  1.0000
  C   C146      1.0  0.28003  0.13251  0.33805  1.0000
  N   N26       1.0  0.26894  0.14256  0.33923  1.0000
  C   C147      1.0  0.24779  0.13251  0.33823  1.0000
  N   N27       1.0  0.23765  0.11136  0.33569  1.0000
  C   C148      1.0  0.30222  0.14368  0.33961  1.0000
  C   C149      1.0  0.31382  0.13326  0.33421  1.0000
  C   C150      1.0  0.33570  0.14430  0.33725  1.0000
  C   C151      1.0  0.34669  0.16613  0.34723  1.0000
  C   C152      1.0  0.33533  0.17671  0.35035  1.0000
  C   C153      1.0  0.31348  0.16566  0.34694  1.0000
  C   C154      1.0  0.23689  0.07831  0.32972  1.0000
  C   C155      1.0  0.24682  0.06745  0.29874  1.0000
  C   C156      1.0  0.23594  0.04565  0.29194  1.0000
  C   C157      1.0  0.21480  0.03384  0.31737  1.0000
  C   C158      1.0  0.20496  0.04459  0.35043  1.0000
  C   C159      1.0  0.21573  0.06646  0.35528  1.0000
  C   C160      1.0  0.23688  0.14378  0.33597  1.0000
  C   C161      1.0  0.21485  0.13343  0.33200  1.0000
  C   C162      1.0  0.20419  0.14462  0.32534  1.0000
  C   C163      1.0  0.21529  0.16655  0.32121  1.0000
  C   C164      1.0  0.23717  0.17704  0.32828  1.0000
  C   C165      1.0  0.24777  0.16584  0.33523  1.0000
  H   H97       1.0  0.24381  0.03847  0.26975  1.0000
  H   H98       1.0  0.26206  0.07531  0.27904  1.0000
  H   H99       1.0  0.18967  0.03662  0.36934  1.0000
  H   H100      1.0  0.20795  0.07361  0.37893  1.0000
  H   H101      1.0  0.20623  0.11754  0.33256  1.0000
  H   H102      1.0  0.18830  0.13659  0.32085  1.0000
  H   H103      1.0  0.26366  0.17414  0.33863  1.0000
  H   H104      1.0  0.24561  0.19296  0.32812  1.0000
  H   H105      1.0  0.30592  0.17400  0.35032  1.0000
  H   H106      1.0  0.34287  0.19259  0.35469  1.0000
  H   H107      1.0  0.34354  0.13622  0.33407  1.0000
  H   H108      1.0  0.30647  0.11742  0.32825  1.0000
  C   C166      1.0  0.88562  0.13384  0.33511  1.0000
  N   N28       1.0  0.87465  0.14402  0.33557  1.0000
  C   C167      1.0  0.85354  0.13397  0.33815  1.0000
  N   N29       1.0  0.84345  0.11283  0.33946  1.0000
  C   C168      1.0  0.85349  0.10172  0.33885  1.0000
  N   N30       1.0  0.87464  0.11270  0.33659  1.0000
  C   C169      1.0  0.84248  0.14510  0.33901  1.0000
  C   C170      1.0  0.85298  0.16707  0.33068  1.0000
  C   C171      1.0  0.84207  0.17805  0.33271  1.0000
  C   C172      1.0  0.82031  0.16739  0.34466  1.0000
  C   C173      1.0  0.80963  0.14549  0.35118  1.0000
  C   C174      1.0  0.82055  0.13455  0.34852  1.0000
  C   C175      1.0  0.90772  0.14498  0.33065  1.0000
  C   C176      1.0  0.91857  0.16578  0.29973  1.0000
  C   C177      1.0  0.94038  0.17673  0.29303  1.0000
  C   C178      1.0  0.95219  0.16739  0.31833  1.0000
  C   C179      1.0  0.94144  0.14679  0.35135  1.0000
  C   C180      1.0  0.91957  0.13568  0.35617  1.0000
  C   C181      1.0  0.84222  0.07953  0.33653  1.0000
  C   C182      1.0  0.85259  0.06786  0.33270  1.0000
  C   C183      1.0  0.84142  0.04603  0.32585  1.0000
  C   C184      1.0  0.81949  0.03517  0.32145  1.0000
  C   C185      1.0  0.80898  0.04655  0.32835  1.0000
  C   C186      1.0  0.82016  0.06835  0.33544  1.0000
  H   H109      1.0  0.94755  0.19178  0.27085  1.0000
  H   H110      1.0  0.91072  0.17318  0.28011  1.0000
  H   H111      1.0  0.94943  0.13948  0.37020  1.0000
  H   H112      1.0  0.91243  0.12075  0.37979  1.0000
  H   H113      1.0  0.86848  0.07515  0.33347  1.0000
  H   H114      1.0  0.84946  0.03817  0.32153  1.0000
  H   H115      1.0  0.81186  0.07593  0.33873  1.0000
  H   H116      1.0  0.79307  0.03906  0.32798  1.0000
  H   H117      1.0  0.81217  0.11870  0.35435  1.0000
  H   H118      1.0  0.79378  0.13730  0.35770  1.0000
  H   H119      1.0  0.85020  0.19393  0.32730  1.0000
  H   H120      1.0  0.86879  0.17544  0.32308  1.0000
  C   C187      1.0  0.25000  0.52851  0.32737  1.0000
  N   N31       1.0  0.23941  0.50744  0.31927  1.0000
  C   C188      1.0  0.24915  0.49597  0.31747  1.0000
  N   N32       1.0  0.27030  0.50625  0.32496  1.0000
  C   C189      1.0  0.28151  0.52723  0.33455  1.0000
  N   N33       1.0  0.27096  0.53776  0.33550  1.0000
  C   C190      1.0  0.23752  0.47384  0.31539  1.0000
  C   C191      1.0  0.21634  0.46299  0.34142  1.0000
  C   C192      1.0  0.20529  0.44118  0.34792  1.0000
  C   C193      1.0  0.21491  0.42942  0.32661  1.0000
  C   C194      1.0  0.23574  0.44005  0.29673  1.0000
  C   C195      1.0  0.24695  0.46192  0.29252  1.0000
  C   C196      1.0  0.24017  0.54083  0.32934  1.0000
  C   C197      1.0  0.21856  0.53231  0.31364  1.0000
  C   C198      1.0  0.20930  0.54494  0.31450  1.0000
  C   C199      1.0  0.22142  0.56645  0.33223  1.0000
  C   C200      1.0  0.24291  0.57503  0.34818  1.0000
  C   C201      1.0  0.25208  0.56248  0.34663  1.0000
  C   C202      1.0  0.30340  0.53853  0.34544  1.0000
  C   C203      1.0  0.31248  0.55619  0.40156  1.0000
  C   C204      1.0  0.33412  0.56931  0.40486  1.0000
  C   C205      1.0  0.34756  0.56558  0.35080  1.0000
  C   C206      1.0  0.33849  0.54737  0.29751  1.0000
  C   C207      1.0  0.31674  0.53384  0.29595  1.0000
  H   H121      1.0  0.19369  0.53833  0.30263  1.0000
  H   H122      1.0  0.20932  0.51679  0.30045  1.0000
  H   H123      1.0  0.25222  0.59063  0.36009  1.0000
  H   H124      1.0  0.26773  0.56958  0.35844  1.0000
  H   H125      1.0  0.30339  0.56013  0.43865  1.0000
  H   H126      1.0  0.33975  0.58253  0.44260  1.0000
  H   H127      1.0  0.31069  0.52142  0.25326  1.0000
  H   H128      1.0  0.34760  0.54415  0.25702  1.0000
  H   H129      1.0  0.26221  0.46906  0.27321  1.0000
  H   H130      1.0  0.24323  0.43200  0.28164  1.0000
  H   H131      1.0  0.19013  0.43397  0.36882  1.0000
  H   H132      1.0  0.20888  0.47087  0.35972  1.0000
  C   C208      1.0  0.45766  0.70791  0.32758  1.0000
  N   N34       1.0  0.47873  0.71840  0.31937  1.0000
  C   C209      1.0  0.49020  0.73961  0.31773  1.0000
  N   N35       1.0  0.47992  0.75048  0.32548  1.0000
  C   C210      1.0  0.45894  0.74070  0.33519  1.0000
  N   N36       1.0  0.44841  0.71962  0.33595  1.0000
  C   C211      1.0  0.51233  0.75013  0.31539  1.0000
  C   C212      1.0  0.52321  0.73976  0.34041  1.0000
  C   C213      1.0  0.54502  0.75054  0.34678  1.0000
  C   C214      1.0  0.55675  0.77194  0.32608  1.0000
  C   C215      1.0  0.54610  0.78219  0.29709  1.0000
  C   C216      1.0  0.52422  0.77151  0.29317  1.0000
  C   C217      1.0  0.44531  0.68575  0.32934  1.0000
  C   C218      1.0  0.45384  0.67266  0.31403  1.0000
  C   C219      1.0  0.44120  0.65078  0.31486  1.0000
  C   C220      1.0  0.41967  0.64139  0.33206  1.0000
  C   C221      1.0  0.41108  0.65432  0.34749  1.0000
  C   C222      1.0  0.42364  0.67603  0.34602  1.0000
  C   C223      1.0  0.44764  0.75129  0.34616  1.0000
  C   C224      1.0  0.42996  0.74268  0.40212  1.0000
  C   C225      1.0  0.41682  0.75117  0.40532  1.0000
  C   C226      1.0  0.42058  0.76838  0.35141  1.0000
  C   C227      1.0  0.43883  0.77757  0.29846  1.0000
  C   C228      1.0  0.45237  0.76937  0.29693  1.0000
  H   H133      1.0  0.44781  0.64176  0.30337  1.0000
  H   H134      1.0  0.46938  0.67893  0.30133  1.0000
  H   H135      1.0  0.39546  0.64804  0.35903  1.0000
  H   H136      1.0  0.41654  0.68459  0.35749  1.0000
  H   H137      1.0  0.42599  0.72961  0.43907  1.0000
  H   H138      1.0  0.40359  0.74357  0.44298  1.0000
  H   H139      1.0  0.46480  0.77574  0.25431  1.0000
  H   H140      1.0  0.44207  0.78993  0.25805  1.0000
  H   H141      1.0  0.51706  0.77966  0.27459  1.0000
  H   H142      1.0  0.55412  0.79776  0.28261  1.0000
  H   H143      1.0  0.55227  0.74259  0.36715  1.0000
  H   H144      1.0  0.51536  0.72440  0.35835  1.0000
  C   C229      1.0  0.27825  0.73608  0.32640  1.0000
  N   N37       1.0  0.26779  0.74670  0.31881  1.0000
  C   C230      1.0  0.24658  0.73698  0.31723  1.0000
  N   N38       1.0  0.23567  0.71583  0.32450  1.0000
  C   C231      1.0  0.24543  0.70460  0.33363  1.0000
  N   N39       1.0  0.26651  0.71511  0.33437  1.0000
  C   C232      1.0  0.23614  0.74866  0.31581  1.0000
  C   C233      1.0  0.24641  0.76968  0.34396  1.0000
  C   C234      1.0  0.23568  0.78075  0.35094  1.0000
  C   C235      1.0  0.21439  0.77133  0.32815  1.0000
  C   C236      1.0  0.20427  0.75066  0.29616  1.0000
  C   C237      1.0  0.21490  0.73941  0.29140  1.0000
  C   C238      1.0  0.30040  0.74589  0.32828  1.0000
  C   C239      1.0  0.31349  0.76755  0.31389  1.0000
  C   C240      1.0  0.33537  0.77681  0.31499  1.0000
  C   C241      1.0  0.34476  0.76465  0.33160  1.0000
  C   C242      1.0  0.33185  0.74309  0.34604  1.0000
  C   C243      1.0  0.31014  0.73392  0.34428  1.0000
  C   C244      1.0  0.23482  0.68271  0.34468  1.0000
  C   C245      1.0  0.24337  0.67364  0.40095  1.0000
  C   C246      1.0  0.23483  0.65200  0.40448  1.0000
  C   C247      1.0  0.21766  0.63855  0.35046  1.0000
  C   C248      1.0  0.20854  0.64762  0.29703  1.0000
  C   C249      1.0  0.21676  0.66936  0.29533  1.0000
  H   H145      1.0  0.34438  0.79247  0.30419  1.0000
  H   H146      1.0  0.30721  0.77683  0.30168  1.0000
  H   H147      1.0  0.33814  0.73375  0.35713  1.0000
  H   H148      1.0  0.30157  0.71823  0.35507  1.0000
  H   H149      1.0  0.25642  0.68274  0.43800  1.0000
  H   H150      1.0  0.24241  0.64638  0.44232  1.0000
  H   H151      1.0  0.21043  0.67540  0.25243  1.0000
  H   H152      1.0  0.19620  0.63849  0.25655  1.0000
  H   H153      1.0  0.20684  0.72427  0.27046  1.0000
  H   H154      1.0  0.18882  0.74329  0.27978  1.0000
  H   H155      1.0  0.24360  0.79580  0.37316  1.0000
  H   H156      1.0  0.26166  0.77700  0.36340  1.0000
  C   C250      1.0  0.74075  0.45329  0.32755  1.0000
  N   N40       1.0  0.75130  0.47437  0.31949  1.0000
  C   C251      1.0  0.74154  0.48583  0.31853  1.0000
  N   N41       1.0  0.72040  0.47549  0.32667  1.0000
  C   C252      1.0  0.70923  0.45451  0.33621  1.0000
  N   N42       1.0  0.71980  0.44401  0.33636  1.0000
  C   C253      1.0  0.75310  0.50799  0.31563  1.0000
  C   C254      1.0  0.77475  0.51899  0.33341  1.0000
  C   C255      1.0  0.78586  0.54082  0.33885  1.0000
  C   C256      1.0  0.77575  0.55239  0.32415  1.0000
  C   C257      1.0  0.75438  0.54168  0.30286  1.0000
  C   C258      1.0  0.74319  0.51980  0.29981  1.0000
  C   C259      1.0  0.75057  0.44094  0.32866  1.0000
  C   C260      1.0  0.77224  0.44954  0.31464  1.0000
  C   C261      1.0  0.78151  0.43692  0.31535  1.0000
  C   C262      1.0  0.76932  0.41532  0.33109  1.0000
  C   C263      1.0  0.74774  0.40665  0.34492  1.0000
  C   C264      1.0  0.73858  0.41920  0.34362  1.0000
  C   C265      1.0  0.68734  0.44318  0.34714  1.0000
  C   C266      1.0  0.67826  0.42542  0.40265  1.0000
  C   C267      1.0  0.65663  0.41227  0.40574  1.0000
  C   C268      1.0  0.64319  0.41610  0.35213  1.0000
  C   C269      1.0  0.65225  0.43442  0.29956  1.0000
  C   C270      1.0  0.67399  0.44796  0.29817  1.0000
  H   H157      1.0  0.79718  0.44359  0.30500  1.0000
  H   H158      1.0  0.78155  0.46513  0.30323  1.0000
  H   H159      1.0  0.73838  0.39099  0.35539  1.0000
  H   H160      1.0  0.72287  0.41203  0.35403  1.0000
  H   H161      1.0  0.68736  0.42141  0.43933  1.0000
  H   H162      1.0  0.65100  0.39899  0.44307  1.0000
  H   H163      1.0  0.68005  0.46044  0.25583  1.0000
  H   H164      1.0  0.64314  0.43770  0.25935  1.0000
  H   H165      1.0  0.72758  0.51261  0.28680  1.0000
  H   H166      1.0  0.74660  0.54967  0.29327  1.0000
  H   H167      1.0  0.80138  0.54820  0.35424  1.0000
  H   H168      1.0  0.78260  0.51122  0.34650  1.0000
  C   C271      1.0  0.53305  0.27380  0.32629  1.0000
  N   N43       1.0  0.51197  0.26337  0.31893  1.0000
  C   C272      1.0  0.50045  0.24217  0.31732  1.0000
  N   N44       1.0  0.51067  0.23123  0.32433  1.0000
  C   C273      1.0  0.53167  0.24097  0.33321  1.0000
  N   N45       1.0  0.54226  0.26204  0.33401  1.0000
  C   C274      1.0  0.47834  0.23176  0.31623  1.0000
  C   C275      1.0  0.46764  0.24203  0.34526  1.0000
  C   C276      1.0  0.44584  0.23133  0.35241  1.0000
  C   C277      1.0  0.43391  0.21008  0.32904  1.0000
  C   C278      1.0  0.44442  0.19999  0.29623  1.0000
  C   C279      1.0  0.46629  0.21058  0.29124  1.0000
  C   C280      1.0  0.54542  0.29596  0.32828  1.0000
  C   C281      1.0  0.53688  0.30907  0.31381  1.0000
  C   C282      1.0  0.54952  0.33095  0.31502  1.0000
  C   C283      1.0  0.57107  0.34031  0.33186  1.0000
  C   C284      1.0  0.57967  0.32737  0.34642  1.0000
  C   C285      1.0  0.56711  0.30566  0.34453  1.0000
  C   C286      1.0  0.54293  0.23034  0.34417  1.0000
  C   C287      1.0  0.56052  0.23885  0.40065  1.0000
  C   C288      1.0  0.57362  0.23031  0.40413  1.0000
  C   C289      1.0  0.56994  0.21318  0.34989  1.0000
  C   C290      1.0  0.55180  0.20411  0.29624  1.0000
  C   C291      1.0  0.53827  0.21233  0.29450  1.0000
  H   H169      1.0  0.54290  0.33998  0.30415  1.0000
  H   H170      1.0  0.52133  0.30282  0.30142  1.0000
  H   H171      1.0  0.59529  0.33364  0.35767  1.0000
  H   H172      1.0  0.57421  0.29707  0.35541  1.0000
  H   H173      1.0  0.56444  0.25186  0.43789  1.0000
  H   H174      1.0  0.58680  0.23786  0.44216  1.0000
  H   H175      1.0  0.52590  0.20602  0.25156  1.0000
  H   H176      1.0  0.54861  0.19180  0.25562  1.0000
  H   H177      1.0  0.47333  0.20253  0.26963  1.0000
  H   H178      1.0  0.43630  0.18456  0.27932  1.0000
  H   H179      1.0  0.43877  0.23927  0.37513  1.0000
  H   H180      1.0  0.47562  0.25725  0.36514  1.0000
  C   C292      1.0  0.71234  0.24554  0.32818  1.0000
  N   N46       1.0  0.72285  0.23498  0.31985  1.0000
  C   C293      1.0  0.74407  0.24474  0.31816  1.0000
  N   N47       1.0  0.75490  0.26589  0.32588  1.0000
  C   C294      1.0  0.74510  0.27707  0.33566  1.0000
  N   N48       1.0  0.72403  0.26650  0.33652  1.0000
  C   C295      1.0  0.75462  0.23315  0.31547  1.0000
  C   C296      1.0  0.74416  0.21176  0.33817  1.0000
  C   C297      1.0  0.75492  0.20070  0.34413  1.0000
  C   C298      1.0  0.77642  0.21054  0.32519  1.0000
  C   C299      1.0  0.78681  0.23161  0.29861  1.0000
  C   C300      1.0  0.77611  0.24280  0.29513  1.0000
  C   C301      1.0  0.69018  0.23570  0.32992  1.0000
  C   C302      1.0  0.67711  0.21411  0.31393  1.0000
  C   C303      1.0  0.65522  0.20485  0.31455  1.0000
  C   C304      1.0  0.64581  0.21696  0.33224  1.0000
  C   C305      1.0  0.65872  0.23844  0.34846  1.0000
  C   C306      1.0  0.68043  0.24760  0.34719  1.0000
  C   C307      1.0  0.75568  0.29897  0.34633  1.0000
  C   C308      1.0  0.74706  0.30810  0.40195  1.0000
  C   C309      1.0  0.75557  0.32974  0.40491  1.0000
  C   C310      1.0  0.77280  0.34314  0.35108  1.0000
  C   C311      1.0  0.78200  0.33404  0.29839  1.0000
  C   C312      1.0  0.77377  0.31229  0.29705  1.0000
  H   H181      1.0  0.64622  0.18925  0.30251  1.0000
  H   H182      1.0  0.68340  0.20488  0.30078  1.0000
  H   H183      1.0  0.65243  0.24775  0.36038  1.0000
  H   H184      1.0  0.68898  0.26325  0.35919  1.0000
  H   H185      1.0  0.73398  0.29903  0.43887  1.0000
  H   H186      1.0  0.74797  0.33539  0.44237  1.0000
  H   H187      1.0  0.78017  0.30621  0.25477  1.0000
  H   H188      1.0  0.79439  0.34313  0.25807  1.0000
  H   H189      1.0  0.78435  0.25821  0.27833  1.0000
  H   H190      1.0  0.80244  0.23924  0.28562  1.0000
  H   H191      1.0  0.74692  0.18540  0.36296  1.0000
  H   H192      1.0  0.72872  0.20413  0.35468  1.0000
  C   C313      1.0  0.20405  0.40754  0.33742  1.0000
  C   C314      1.0  0.19333  0.39788  0.41674  1.0000
  C   C315      1.0  0.18256  0.37597  0.42466  1.0000
  C   C316      1.0  0.18263  0.36429  0.34976  1.0000
  H   H193      1.0  0.19377  0.40686  0.46941  1.0000
  C   C317      1.0  0.17261  0.36604  0.51075  1.0000
  H   H194      1.0  0.17564  0.37745  0.56304  1.0000
  H   H195      1.0  0.17861  0.35608  0.53352  1.0000
  H   H196      1.0  0.15580  0.35665  0.50261  1.0000
  C   C318      1.0  0.57862  0.78298  0.33687  1.0000
  C   C319      1.0  0.58826  0.78210  0.41655  1.0000
  C   C320      1.0  0.61016  0.79328  0.42454  1.0000
  C   C321      1.0  0.62186  0.80485  0.34930  1.0000
  H   H197      1.0  0.57926  0.77370  0.46945  1.0000
  C   C322      1.0  0.62009  0.79350  0.51095  1.0000
  H   H198      1.0  0.60868  0.78520  0.56334  1.0000
  H   H199      1.0  0.62999  0.80952  0.53314  1.0000
  H   H200      1.0  0.62955  0.78613  0.50354  1.0000
  C   C323      1.0  0.20338  0.78223  0.33899  1.0000
  C   C324      1.0  0.20481  0.79339  0.41741  1.0000
  C   C325      1.0  0.19371  0.80420  0.42517  1.0000
  C   C326      1.0  0.18153  0.80367  0.35104  1.0000
  H   H201      1.0  0.21361  0.79324  0.46968  1.0000
  C   C327      1.0  0.19422  0.81467  0.51045  1.0000
  H   H202      1.0  0.20283  0.81188  0.56251  1.0000
  H   H203      1.0  0.17839  0.80887  0.53457  1.0000
  H   H204      1.0  0.20166  0.83143  0.50060  1.0000
  C   C328      1.0  0.78663  0.57420  0.33456  1.0000
  C   C329      1.0  0.79573  0.58373  0.41647  1.0000
  C   C330      1.0  0.80638  0.60564  0.42440  1.0000
  C   C331      1.0  0.80785  0.61734  0.34705  1.0000
  H   H205      1.0  0.79420  0.57466  0.47062  1.0000
  C   C332      1.0  0.81470  0.61562  0.51224  1.0000
  H   H206      1.0  0.81104  0.60425  0.56536  1.0000
  H   H207      1.0  0.80800  0.62527  0.53045  1.0000
  H   H208      1.0  0.83158  0.62537  0.50894  1.0000
  C   C333      1.0  0.41199  0.19911  0.33979  1.0000
  C   C334      1.0  0.40222  0.20074  0.41770  1.0000
  C   C335      1.0  0.38030  0.18967  0.42528  1.0000
  C   C336      1.0  0.36868  0.17730  0.35150  1.0000
  H   H209      1.0  0.41113  0.20964  0.46980  1.0000
  C   C337      1.0  0.37031  0.19040  0.51011  1.0000
  H   H210      1.0  0.38168  0.19912  0.56207  1.0000
  H   H211      1.0  0.36025  0.17464  0.53487  1.0000
  H   H212      1.0  0.36102  0.19784  0.49939  1.0000
  C   C338      1.0  0.78743  0.19970  0.33585  1.0000
  C   C339      1.0  0.78694  0.18961  0.41628  1.0000
  C   C340      1.0  0.79814  0.17890  0.42428  1.0000
  C   C341      1.0  0.80930  0.17836  0.34834  1.0000
  H   H213      1.0  0.77878  0.19047  0.46956  1.0000
  C   C342      1.0  0.79880  0.16962  0.51121  1.0000
  H   H214      1.0  0.79069  0.17292  0.56383  1.0000
  H   H215      1.0  0.81493  0.17593  0.53218  1.0000
  H   H216      1.0  0.79149  0.15278  0.50514  1.0000
  N   N49       1.0  0.19137  0.17603  0.37769  1.0000
  N   N50       1.0  0.18115  0.18613  0.37779  1.0000
  N   N51       1.0  0.81003  0.00177  0.37789  1.0000
  N   N52       1.0  0.79997  0.98145  0.37792  1.0000
  N   N53       1.0  0.98429  0.79468  0.37750  1.0000
  N   N54       1.0  0.00461  0.80492  0.37750  1.0000
  N   N55       1.0  0.79900  0.80547  0.37817  1.0000
  N   N56       1.0  0.80922  0.79537  0.37839  1.0000
  N   N57       1.0  0.18048  0.97989  0.37748  1.0000
  N   N58       1.0  0.19057  0.00021  0.37743  1.0000
  N   N59       1.0  0.00617  0.18704  0.37800  1.0000
  N   N60       1.0  0.98585  0.17680  0.37813  1.0000
  N   N61       1.0  0.21592  0.59069  0.40983  1.0000
  N   N62       1.0  0.21533  0.60791  0.41485  1.0000
  N   N63       1.0  0.39544  0.61171  0.40988  1.0000
  N   N64       1.0  0.37821  0.59391  0.41493  1.0000
  N   N65       1.0  0.37435  0.77003  0.40978  1.0000
  N   N66       1.0  0.39213  0.77059  0.41520  1.0000
  N   N67       1.0  0.77466  0.39113  0.40938  1.0000
  N   N68       1.0  0.77514  0.37386  0.41475  1.0000
  N   N69       1.0  0.59532  0.36985  0.41016  1.0000
  N   N70       1.0  0.61255  0.38764  0.41564  1.0000
  N   N71       1.0  0.61602  0.21140  0.40967  1.0000
  N   N72       1.0  0.59821  0.21081  0.41450  1.0000
