data_image0
_chemical_formula_structural       C3HOHC3HOHC3HOHC3HOHC3HOHC3HOHC3H2C3H2C3H2C3H2C3H2C3H2C3H2C3H2C3H2C3H2C3H2C3H2C3HOHC3HOHC3HOHC3HOHC3HOHC3HOHC3H2C3H2C3H2C3H2C3H2C3H2C3H2C3H2C3H2C3H2C3H2C3H2CNCNCNCNCNCNCNCNCNCNCNCNCNCNCNCNCNCNCNCNCNCNCNCNCNCNCNCNCNCNCNCNCNCNCNCNCNCNCNCNCNCNCNCNCNCNCNCNCNCNCNCNCNCNCNCNCNCNCNCNCNCNCNCNCNCNCNCNCNCNCNCNC3H2C3H2C3H2C3H2C3H2C3H2C3HOHC3HOHC3HOHC3HOHC3HOHC3HOHC3HOHC3HOHC3HOHC3HOHC3HOHC3HOHC3H2C3H2C3H2C3H2C3H2C3H2C3HOHC3HOHC3HOHC3HOHC3HOHC3HOHC3HOHC3HOHC3HOHC3HOHC3HOHC3HOH
_chemical_formula_sum              "C288 H144 O36 N72"
_cell_length_a       53.8429
_cell_length_b       53.8428
_cell_length_c       14.8776
_cell_angle_alpha    90
_cell_angle_beta     90
_cell_angle_gamma    120

_space_group_name_H-M_alt    "P 1"
_space_group_IT_number       1

loop_
  _space_group_symop_operation_xyz
  'x, y, z'

loop_
  _atom_site_type_symbol
  _atom_site_label
  _atom_site_symmetry_multiplicity
  _atom_site_fract_x
  _atom_site_fract_y
  _atom_site_fract_z
  _atom_site_occupancy
  C   C1        1.0  0.14633  0.45888  0.38436  1.0000
  C   C2        1.0  0.12044  0.44240  0.33611  1.0000
  C   C3        1.0  0.10670  0.41204  0.33636  1.0000
  H   H1        1.0  0.08890  0.40072  0.29705  1.0000
  O   O1        1.0  0.10947  0.45537  0.28385  1.0000
  H   H2        1.0  0.11804  0.45759  0.22390  1.0000
  C   C4        1.0  0.55149  0.68937  0.38469  1.0000
  C   C5        1.0  0.56794  0.68003  0.33593  1.0000
  C   C6        1.0  0.59830  0.69664  0.33618  1.0000
  H   H3        1.0  0.60962  0.69027  0.29640  1.0000
  O   O2        1.0  0.55495  0.65620  0.28316  1.0000
  H   H4        1.0  0.55276  0.66270  0.22342  1.0000
  C   C7        1.0  0.32087  0.86409  0.38454  1.0000
  C   C8        1.0  0.33022  0.88985  0.33561  1.0000
  C   C9        1.0  0.31362  0.90361  0.33572  1.0000
  H   H5        1.0  0.31998  0.92127  0.29582  1.0000
  O   O3        1.0  0.35401  0.90063  0.28273  1.0000
  H   H6        1.0  0.34749  0.89185  0.22310  1.0000
  C   C10       1.0  0.86641  0.54941  0.38447  1.0000
  C   C11       1.0  0.89193  0.56583  0.33441  1.0000
  C   C12       1.0  0.90566  0.59619  0.33437  1.0000
  H   H7        1.0  0.92312  0.60746  0.29368  1.0000
  O   O4        1.0  0.90249  0.55280  0.28072  1.0000
  H   H8        1.0  0.89349  0.55054  0.22147  1.0000
  C   C13       1.0  0.46091  0.31874  0.38489  1.0000
  C   C14       1.0  0.44444  0.32814  0.33652  1.0000
  C   C15       1.0  0.41408  0.31152  0.33669  1.0000
  H   H9        1.0  0.40277  0.31798  0.29730  1.0000
  O   O5        1.0  0.45742  0.35205  0.28414  1.0000
  H   H10       1.0  0.45965  0.34566  0.22426  1.0000
  C   C16       1.0  0.69154  0.14415  0.38421  1.0000
  C   C17       1.0  0.68213  0.11828  0.33584  1.0000
  C   C18       1.0  0.69875  0.10453  0.33616  1.0000
  H   H11       1.0  0.69233  0.08680  0.29659  1.0000
  O   O6        1.0  0.65826  0.10737  0.28330  1.0000
  H   H12       1.0  0.66468  0.11601  0.22346  1.0000
  C   C19       1.0  0.40025  0.11397  0.31615  1.0000
  C   C20       1.0  0.41544  0.13480  0.24969  1.0000
  C   C21       1.0  0.44533  0.14766  0.24280  1.0000
  H   H13       1.0  0.45545  0.16372  0.19640  1.0000
  H   H14       1.0  0.40501  0.14157  0.20737  1.0000
  C   C22       1.0  0.72179  0.61002  0.31639  1.0000
  C   C23       1.0  0.72735  0.59481  0.24978  1.0000
  C   C24       1.0  0.71033  0.56491  0.24304  1.0000
  H   H15       1.0  0.71622  0.55478  0.19656  1.0000
  H   H16       1.0  0.74448  0.60523  0.20718  1.0000
  C   C25       1.0  0.89622  0.28823  0.31645  1.0000
  C   C26       1.0  0.87537  0.28251  0.24999  1.0000
  C   C27       1.0  0.86245  0.29947  0.24299  1.0000
  H   H17       1.0  0.84645  0.29355  0.19636  1.0000
  H   H18       1.0  0.86867  0.26533  0.20762  1.0000
  C   C28       1.0  0.61207  0.89432  0.31623  1.0000
  C   C29       1.0  0.59691  0.87354  0.24960  1.0000
  C   C30       1.0  0.56702  0.86064  0.24266  1.0000
  H   H19       1.0  0.55692  0.84461  0.19617  1.0000
  H   H20       1.0  0.60737  0.86680  0.20723  1.0000
  C   C31       1.0  0.29035  0.39825  0.31609  1.0000
  C   C32       1.0  0.28463  0.41343  0.24978  1.0000
  C   C33       1.0  0.30158  0.44333  0.24303  1.0000
  H   H21       1.0  0.29565  0.45344  0.19657  1.0000
  H   H22       1.0  0.26743  0.40298  0.20746  1.0000
  C   C34       1.0  0.11594  0.71989  0.31656  1.0000
  C   C35       1.0  0.13675  0.72549  0.25005  1.0000
  C   C36       1.0  0.14967  0.70852  0.24342  1.0000
  H   H23       1.0  0.16568  0.71440  0.19686  1.0000
  H   H24       1.0  0.14349  0.74267  0.20761  1.0000
  C   C37       1.0  0.29406  0.52767  0.30710  1.0000
  C   C38       1.0  0.26997  0.50816  0.25594  1.0000
  C   C39       1.0  0.24409  0.50830  0.26060  1.0000
  H   H25       1.0  0.22678  0.49268  0.22643  1.0000
  H   H26       1.0  0.27041  0.49246  0.21831  1.0000
  C   C40       1.0  0.48291  0.76862  0.30747  1.0000
  C   C41       1.0  0.50252  0.76409  0.25675  1.0000
  C   C42       1.0  0.50238  0.73807  0.26145  1.0000
  H   H27       1.0  0.51801  0.73637  0.22736  1.0000
  H   H28       1.0  0.51823  0.78023  0.21912  1.0000
  C   C43       1.0  0.24162  0.71627  0.30813  1.0000
  C   C44       1.0  0.24617  0.74037  0.25713  1.0000
  C   C45       1.0  0.27222  0.76624  0.26167  1.0000
  H   H29       1.0  0.27389  0.78358  0.22768  1.0000
  H   H30       1.0  0.23001  0.73996  0.21972  1.0000
  C   C46       1.0  0.71844  0.48097  0.30881  1.0000
  C   C47       1.0  0.74259  0.50062  0.25819  1.0000
  C   C48       1.0  0.76847  0.50047  0.26273  1.0000
  H   H31       1.0  0.78580  0.51616  0.22882  1.0000
  H   H32       1.0  0.74216  0.51637  0.22077  1.0000
  C   C49       1.0  0.52955  0.23959  0.30737  1.0000
  C   C50       1.0  0.50998  0.24415  0.25653  1.0000
  C   C51       1.0  0.51012  0.27017  0.26122  1.0000
  H   H33       1.0  0.49451  0.27188  0.22704  1.0000
  H   H34       1.0  0.49429  0.22802  0.21879  1.0000
  C   C52       1.0  0.77054  0.29190  0.30683  1.0000
  C   C53       1.0  0.76597  0.26779  0.25583  1.0000
  C   C54       1.0  0.73994  0.24191  0.26052  1.0000
  H   H35       1.0  0.73826  0.22458  0.22649  1.0000
  H   H36       1.0  0.78211  0.26822  0.21827  1.0000
  C   C55       1.0  0.17555  0.56232  0.37536  1.0000
  C   C56       1.0  0.15248  0.56391  0.33513  1.0000
  C   C57       1.0  0.15261  0.59031  0.33234  1.0000
  H   H37       1.0  0.13681  0.59130  0.29705  1.0000
  O   O7        1.0  0.13089  0.54080  0.29262  1.0000
  H   H38       1.0  0.13730  0.54139  0.23035  1.0000
  C   C58       1.0  0.44800  0.61536  0.37519  1.0000
  C   C59       1.0  0.44639  0.59069  0.33488  1.0000
  C   C60       1.0  0.41997  0.56445  0.33188  1.0000
  H   H39       1.0  0.41900  0.54766  0.29665  1.0000
  O   O8        1.0  0.46952  0.59218  0.29263  1.0000
  H   H40       1.0  0.46899  0.59801  0.23032  1.0000
  C   C61       1.0  0.39492  0.83463  0.37514  1.0000
  C   C62       1.0  0.41958  0.85773  0.33499  1.0000
  C   C63       1.0  0.44582  0.85756  0.33187  1.0000
  H   H41       1.0  0.46264  0.87344  0.29690  1.0000
  O   O9        1.0  0.41809  0.87939  0.29285  1.0000
  H   H42       1.0  0.41224  0.87305  0.23054  1.0000
  C   C64       1.0  0.83669  0.44585  0.37493  1.0000
  C   C65       1.0  0.85980  0.44427  0.33488  1.0000
  C   C66       1.0  0.85961  0.41785  0.33181  1.0000
  H   H43       1.0  0.87547  0.41690  0.29678  1.0000
  O   O10       1.0  0.88149  0.46742  0.29284  1.0000
  H   H44       1.0  0.87517  0.46696  0.23053  1.0000
  C   C67       1.0  0.56438  0.39282  0.37551  1.0000
  C   C68       1.0  0.56595  0.41750  0.33545  1.0000
  C   C69       1.0  0.59235  0.44376  0.33259  1.0000
  H   H45       1.0  0.59329  0.46058  0.29757  1.0000
  O   O11       1.0  0.54281  0.41601  0.29330  1.0000
  H   H46       1.0  0.54334  0.41023  0.23094  1.0000
  C   C70       1.0  0.61737  0.17344  0.37498  1.0000
  C   C71       1.0  0.59271  0.15037  0.33469  1.0000
  C   C72       1.0  0.56647  0.15055  0.33169  1.0000
  H   H47       1.0  0.54966  0.13472  0.29649  1.0000
  O   O12       1.0  0.59421  0.12876  0.29229  1.0000
  H   H48       1.0  0.60006  0.13516  0.23002  1.0000
  C   C73       1.0  0.97617  0.27244  0.33751  1.0000
  C   C74       1.0  0.99307  0.30067  0.30354  1.0000
  C   C75       1.0  0.02311  0.31509  0.30550  1.0000
  H   H49       1.0  0.03373  0.33557  0.28059  1.0000
  H   H50       1.0  0.98373  0.31156  0.27701  1.0000
  C   C76       1.0  0.73792  0.70588  0.33677  1.0000
  C   C77       1.0  0.70981  0.69468  0.30192  1.0000
  C   C78       1.0  0.69540  0.71030  0.30393  1.0000
  H   H51       1.0  0.67498  0.70053  0.27853  1.0000
  H   H52       1.0  0.69899  0.67452  0.27482  1.0000
  C   C79       1.0  0.30446  0.03413  0.33704  1.0000
  C   C80       1.0  0.31572  0.01723  0.30257  1.0000
  C   C81       1.0  0.30012  0.98720  0.30456  1.0000
  H   H53       1.0  0.30993  0.97658  0.27931  1.0000
  H   H54       1.0  0.33591  0.02658  0.27565  1.0000
  C   C82       1.0  0.03615  0.73593  0.33664  1.0000
  C   C83       1.0  0.01928  0.70785  0.30153  1.0000
  C   C84       1.0  0.98924  0.69340  0.30342  1.0000
  H   H55       1.0  0.97863  0.67302  0.27781  1.0000
  H   H56       1.0  0.02865  0.69707  0.27436  1.0000
  C   C85       1.0  0.27452  0.30249  0.33728  1.0000
  C   C86       1.0  0.30276  0.31380  0.30339  1.0000
  C   C87       1.0  0.31717  0.29818  0.30545  1.0000
  H   H57       1.0  0.33766  0.30804  0.28064  1.0000
  H   H58       1.0  0.31367  0.33404  0.27687  1.0000
  C   C88       1.0  0.70790  0.97410  0.33707  1.0000
  C   C89       1.0  0.69668  0.99102  0.30246  1.0000
  C   C90       1.0  0.71230  0.02105  0.30447  1.0000
  H   H59       1.0  0.70251  0.03169  0.27915  1.0000
  H   H60       1.0  0.67650  0.98168  0.27547  1.0000
  C   C91       1.0  0.19315  0.32252  0.32510  1.0000
  C   C92       1.0  0.18535  0.33687  0.26097  1.0000
  C   C93       1.0  0.15911  0.33651  0.26632  1.0000
  H   H61       1.0  0.15555  0.34898  0.22198  1.0000
  H   H62       1.0  0.19970  0.34952  0.21273  1.0000
  C   C94       1.0  0.68762  0.87260  0.32516  1.0000
  C   C95       1.0  0.67309  0.85038  0.26141  1.0000
  C   C96       1.0  0.67346  0.82449  0.26667  1.0000
  H   H63       1.0  0.66091  0.80844  0.22255  1.0000
  H   H64       1.0  0.66038  0.85206  0.21336  1.0000
  C   C97       1.0  0.13763  0.81714  0.32507  1.0000
  C   C98       1.0  0.15980  0.82481  0.26115  1.0000
  C   C99       1.0  0.18573  0.85104  0.26635  1.0000
  H   H65       1.0  0.20171  0.85455  0.22194  1.0000
  H   H66       1.0  0.15805  0.81044  0.21294  1.0000
  C   C100      1.0  0.81910  0.68555  0.32478  1.0000
  C   C101      1.0  0.82674  0.67098  0.26103  1.0000
  C   C102      1.0  0.85298  0.67131  0.26620  1.0000
  H   H67       1.0  0.85644  0.65873  0.22207  1.0000
  H   H68       1.0  0.81232  0.65823  0.21313  1.0000
  C   C103      1.0  0.32462  0.13558  0.32522  1.0000
  C   C104      1.0  0.33899  0.15775  0.26122  1.0000
  C   C105      1.0  0.33862  0.18364  0.26660  1.0000
  H   H69       1.0  0.35102  0.19964  0.22213  1.0000
  H   H70       1.0  0.35161  0.15605  0.21290  1.0000
  C   C106      1.0  0.87478  0.19106  0.32531  1.0000
  C   C107      1.0  0.85265  0.18328  0.26117  1.0000
  C   C108      1.0  0.82672  0.15707  0.26651  1.0000
  H   H71       1.0  0.81074  0.15351  0.22202  1.0000
  H   H72       1.0  0.85437  0.19764  0.21294  1.0000
  C   C109      1.0  0.16497  0.48866  0.36859  1.0000
  N   N1        1.0  0.15869  0.51025  0.37630  1.0000
  C   C110      1.0  0.17969  0.53833  0.36531  1.0000
  N   N2        1.0  0.20680  0.54415  0.34505  1.0000
  C   C111      1.0  0.21342  0.52321  0.33381  1.0000
  N   N3        1.0  0.19221  0.49596  0.34708  1.0000
  C   C112      1.0  0.52172  0.67831  0.36892  1.0000
  N   N4        1.0  0.50009  0.65046  0.37638  1.0000
  C   C113      1.0  0.47204  0.64348  0.36533  1.0000
  N   N5        1.0  0.46629  0.66483  0.34525  1.0000
  C   C114      1.0  0.48729  0.69237  0.33424  1.0000
  N   N6        1.0  0.51451  0.69834  0.34755  1.0000
  C   C115      1.0  0.33194  0.84537  0.36902  1.0000
  N   N7        1.0  0.35980  0.85160  0.37635  1.0000
  C   C116      1.0  0.36678  0.83054  0.36542  1.0000
  N   N8        1.0  0.34543  0.80343  0.34548  1.0000
  C   C117      1.0  0.31788  0.79687  0.33459  1.0000
  N   N9        1.0  0.31191  0.81813  0.34780  1.0000
  C   C118      1.0  0.84763  0.51965  0.36904  1.0000
  N   N10       1.0  0.85379  0.49797  0.37619  1.0000
  C   C119      1.0  0.83267  0.46994  0.36538  1.0000
  N   N11       1.0  0.80556  0.46426  0.34579  1.0000
  C   C120      1.0  0.79905  0.48529  0.33517  1.0000
  N   N12       1.0  0.82038  0.51250  0.34819  1.0000
  C   C121      1.0  0.49068  0.32982  0.36906  1.0000
  N   N13       1.0  0.51230  0.35767  0.37663  1.0000
  C   C122      1.0  0.54036  0.36469  0.36553  1.0000
  N   N14       1.0  0.54614  0.34337  0.34532  1.0000
  C   C123      1.0  0.52516  0.31582  0.33421  1.0000
  N   N15       1.0  0.49792  0.30983  0.34757  1.0000
  C   C124      1.0  0.68041  0.16280  0.36844  1.0000
  N   N16       1.0  0.65254  0.15654  0.37605  1.0000
  C   C125      1.0  0.64550  0.17756  0.36503  1.0000
  N   N17       1.0  0.66680  0.20467  0.34484  1.0000
  C   C126      1.0  0.69435  0.21126  0.33374  1.0000
  N   N18       1.0  0.70038  0.19005  0.34701  1.0000
  C   C127      1.0  0.49137  0.16117  0.31300  1.0000
  N   N19       1.0  0.51283  0.15574  0.33569  1.0000
  C   C128      1.0  0.54041  0.17769  0.34832  1.0000
  N   N20       1.0  0.54588  0.20519  0.33802  1.0000
  C   C129      1.0  0.52531  0.21146  0.31507  1.0000
  N   N21       1.0  0.49857  0.18901  0.30460  1.0000
  C   C130      1.0  0.67797  0.51893  0.31389  1.0000
  N   N22       1.0  0.65110  0.49742  0.33648  1.0000
  C   C131      1.0  0.64556  0.46987  0.34929  1.0000
  N   N23       1.0  0.66765  0.46450  0.33921  1.0000
  C   C132      1.0  0.69449  0.48513  0.31647  1.0000
  N   N24       1.0  0.69868  0.51182  0.30577  1.0000
  C   C133      1.0  0.84897  0.33214  0.31252  1.0000
  N   N25       1.0  0.85438  0.35900  0.33550  1.0000
  C   C134      1.0  0.83243  0.36464  0.34813  1.0000
  N   N26       1.0  0.80494  0.34262  0.33764  1.0000
  C   C135      1.0  0.79868  0.31579  0.31458  1.0000
  N   N27       1.0  0.82113  0.31151  0.30410  1.0000
  C   C136      1.0  0.52095  0.84704  0.31283  1.0000
  N   N28       1.0  0.49948  0.85243  0.33569  1.0000
  C   C137      1.0  0.47192  0.83045  0.34841  1.0000
  N   N29       1.0  0.46650  0.80297  0.33810  1.0000
  C   C138      1.0  0.48709  0.79674  0.31511  1.0000
  N   N30       1.0  0.51381  0.81922  0.30453  1.0000
  C   C139      1.0  0.33421  0.48940  0.31307  1.0000
  N   N31       1.0  0.36110  0.51084  0.33582  1.0000
  C   C140      1.0  0.36676  0.53843  0.34839  1.0000
  N   N32       1.0  0.34476  0.54393  0.33798  1.0000
  C   C141      1.0  0.31792  0.52338  0.31500  1.0000
  N   N33       1.0  0.31360  0.49663  0.30454  1.0000
  C   C142      1.0  0.16320  0.67600  0.31376  1.0000
  N   N34       1.0  0.15778  0.64912  0.33645  1.0000
  C   C143      1.0  0.17973  0.64350  0.34915  1.0000
  N   N35       1.0  0.20723  0.66554  0.33886  1.0000
  C   C144      1.0  0.21349  0.69239  0.31600  1.0000
  N   N36       1.0  0.19103  0.69665  0.30542  1.0000
  C   C145      1.0  0.11724  0.32874  0.35178  1.0000
  N   N37       1.0  0.08829  0.31019  0.34526  1.0000
  C   C146      1.0  0.06901  0.31978  0.35105  1.0000
  N   N38       1.0  0.07984  0.34850  0.36317  1.0000
  C   C147      1.0  0.10818  0.36755  0.37111  1.0000
  N   N39       1.0  0.12634  0.35705  0.36408  1.0000
  C   C148      1.0  0.68150  0.79051  0.35174  1.0000
  N   N40       1.0  0.70010  0.78017  0.34501  1.0000
  C   C149      1.0  0.69058  0.75133  0.35069  1.0000
  N   N41       1.0  0.66187  0.73336  0.36295  1.0000
  C   C150      1.0  0.64278  0.74259  0.37115  1.0000
  N   N42       1.0  0.65321  0.77124  0.36420  1.0000
  C   C151      1.0  0.21982  0.89306  0.35117  1.0000
  N   N43       1.0  0.23016  0.92200  0.34486  1.0000
  C   C152      1.0  0.25901  0.94131  0.35064  1.0000
  N   N44       1.0  0.27696  0.93054  0.36281  1.0000
  C   C153      1.0  0.26771  0.90221  0.37074  1.0000
  N   N45       1.0  0.23906  0.88401  0.36366  1.0000
  C   C154      1.0  0.89506  0.67934  0.35076  1.0000
  N   N46       1.0  0.92400  0.69798  0.34436  1.0000
  C   C155      1.0  0.94335  0.68850  0.35007  1.0000
  N   N47       1.0  0.93263  0.65979  0.36215  1.0000
  C   C156      1.0  0.90431  0.64067  0.37016  1.0000
  N   N48       1.0  0.88606  0.65106  0.36322  1.0000
  C   C157      1.0  0.33077  0.21769  0.35192  1.0000
  N   N49       1.0  0.31224  0.22810  0.34531  1.0000
  C   C158      1.0  0.32182  0.25696  0.35114  1.0000
  N   N50       1.0  0.35054  0.27485  0.36336  1.0000
  C   C159      1.0  0.36958  0.26555  0.37139  1.0000
  N   N51       1.0  0.35908  0.23689  0.36434  1.0000
  C   C160      1.0  0.79261  0.11515  0.35168  1.0000
  N   N52       1.0  0.78224  0.08620  0.34515  1.0000
  C   C161      1.0  0.75339  0.06691  0.35083  1.0000
  N   N53       1.0  0.73546  0.07770  0.36295  1.0000
  C   C162      1.0  0.74472  0.10603  0.37099  1.0000
  N   N54       1.0  0.77338  0.12422  0.36403  1.0000
  C   C163      1.0  0.33172  0.11329  0.33079  1.0000
  N   N55       1.0  0.31292  0.08434  0.33807  1.0000
  C   C164      1.0  0.32237  0.06486  0.33882  1.0000
  N   N56       1.0  0.35128  0.07554  0.33443  1.0000
  C   C165      1.0  0.37056  0.10378  0.32777  1.0000
  N   N57       1.0  0.36014  0.12202  0.32463  1.0000
  C   C166      1.0  0.78970  0.67848  0.33056  1.0000
  N   N58       1.0  0.77961  0.69732  0.33779  1.0000
  C   C167      1.0  0.75069  0.68792  0.33875  1.0000
  N   N59       1.0  0.73242  0.65902  0.33449  1.0000
  C   C168      1.0  0.74133  0.63970  0.32790  1.0000
  N   N60       1.0  0.76998  0.65008  0.32462  1.0000
  C   C169      1.0  0.89704  0.22046  0.33115  1.0000
  N   N61       1.0  0.92599  0.23065  0.33840  1.0000
  C   C170      1.0  0.94544  0.25959  0.33931  1.0000
  N   N62       1.0  0.93472  0.27778  0.33488  1.0000
  C   C171      1.0  0.90646  0.26878  0.32821  1.0000
  N   N63       1.0  0.88827  0.24011  0.32499  1.0000
  C   C172      1.0  0.68056  0.89493  0.33086  1.0000
  N   N64       1.0  0.69938  0.92387  0.33812  1.0000
  C   C173      1.0  0.68996  0.94337  0.33899  1.0000
  N   N65       1.0  0.66106  0.93273  0.33458  1.0000
  C   C174      1.0  0.64175  0.90449  0.32796  1.0000
  N   N66       1.0  0.65215  0.88624  0.32476  1.0000
  C   C175      1.0  0.22257  0.32967  0.33067  1.0000
  N   N67       1.0  0.23275  0.31091  0.33806  1.0000
  C   C176      1.0  0.26168  0.32039  0.33886  1.0000
  N   N68       1.0  0.27988  0.34930  0.33443  1.0000
  C   C177      1.0  0.27089  0.36855  0.32767  1.0000
  N   N69       1.0  0.24222  0.35809  0.32450  1.0000
  C   C178      1.0  0.11531  0.78775  0.33079  1.0000
  N   N70       1.0  0.08637  0.77764  0.33790  1.0000
  C   C179      1.0  0.06687  0.74871  0.33878  1.0000
  N   N71       1.0  0.07752  0.73046  0.33456  1.0000
  C   C180      1.0  0.10576  0.73939  0.32810  1.0000
  N   N72       1.0  0.12401  0.76805  0.32489  1.0000
  C   C181      1.0  0.11894  0.39749  0.38128  1.0000
  C   C182      1.0  0.14390  0.41401  0.43283  1.0000
  C   C183      1.0  0.15707  0.44400  0.43517  1.0000
  H   H73       1.0  0.17594  0.45507  0.46999  1.0000
  H   H74       1.0  0.15340  0.40443  0.46697  1.0000
  C   C184      1.0  0.61286  0.72336  0.38149  1.0000
  C   C185      1.0  0.59636  0.73171  0.43356  1.0000
  C   C186      1.0  0.56636  0.71486  0.43604  1.0000
  H   H75       1.0  0.55530  0.72266  0.47095  1.0000
  H   H76       1.0  0.60594  0.75077  0.46779  1.0000
  C   C187      1.0  0.28692  0.89150  0.38114  1.0000
  C   C188      1.0  0.27857  0.86669  0.43341  1.0000
  C   C189      1.0  0.29539  0.85351  0.43592  1.0000
  H   H77       1.0  0.28764  0.83473  0.47121  1.0000
  H   H78       1.0  0.25955  0.85729  0.46786  1.0000
  C   C190      1.0  0.89370  0.61077  0.38061  1.0000
  C   C191      1.0  0.86912  0.59433  0.43385  1.0000
  C   C192      1.0  0.85601  0.56434  0.43652  1.0000
  H   H79       1.0  0.83736  0.55331  0.47246  1.0000
  H   H80       1.0  0.85981  0.60396  0.46878  1.0000
  C   C193      1.0  0.39952  0.28474  0.38167  1.0000
  C   C194      1.0  0.41602  0.27630  0.43334  1.0000
  C   C195      1.0  0.44602  0.29313  0.43576  1.0000
  H   H81       1.0  0.45706  0.28528  0.47047  1.0000
  H   H82       1.0  0.40644  0.25720  0.46733  1.0000
  C   C196      1.0  0.72552  0.11676  0.38120  1.0000
  C   C197      1.0  0.73393  0.14168  0.43295  1.0000
  C   C198      1.0  0.71710  0.15485  0.43529  1.0000
  H   H83       1.0  0.72488  0.17370  0.47022  1.0000
  H   H84       1.0  0.75298  0.15116  0.46720  1.0000
  C   C199      1.0  0.46145  0.14117  0.30429  1.0000
  C   C200      1.0  0.44606  0.11892  0.36750  1.0000
  C   C201      1.0  0.41572  0.10506  0.37158  1.0000
  H   H85       1.0  0.40524  0.09022  0.42107  1.0000
  O   O13       1.0  0.46008  0.11185  0.42957  1.0000
  H   H86       1.0  0.46268  0.12375  0.48282  1.0000
  C   C202      1.0  0.68785  0.54883  0.30492  1.0000
  C   C203      1.0  0.68100  0.56421  0.36820  1.0000
  C   C204      1.0  0.69748  0.59456  0.37213  1.0000
  H   H87       1.0  0.69320  0.60508  0.42167  1.0000
  O   O14       1.0  0.66003  0.55023  0.43059  1.0000
  H   H88       1.0  0.66941  0.54765  0.48365  1.0000
  C   C205      1.0  0.86891  0.32214  0.30421  1.0000
  C   C206      1.0  0.89120  0.32910  0.36740  1.0000
  C   C207      1.0  0.90507  0.31263  0.37176  1.0000
  H   H89       1.0  0.91998  0.31708  0.42111  1.0000
  O   O15       1.0  0.89829  0.35025  0.42919  1.0000
  H   H90       1.0  0.88640  0.34103  0.48252  1.0000
  C   C208      1.0  0.55088  0.86705  0.30427  1.0000
  C   C209      1.0  0.56622  0.88929  0.36760  1.0000
  C   C210      1.0  0.59656  0.90316  0.37175  1.0000
  H   H91       1.0  0.60705  0.91798  0.42130  1.0000
  O   O16       1.0  0.55218  0.89629  0.42972  1.0000
  H   H92       1.0  0.54957  0.88436  0.48289  1.0000
  C   C211      1.0  0.32422  0.45946  0.30438  1.0000
  C   C212      1.0  0.33122  0.44410  0.36731  1.0000
  C   C213      1.0  0.31479  0.41375  0.37130  1.0000
  H   H93       1.0  0.31917  0.40326  0.42070  1.0000
  O   O17       1.0  0.35233  0.45811  0.42925  1.0000
  H   H94       1.0  0.34308  0.46072  0.48258  1.0000
  C   C214      1.0  0.14321  0.68594  0.30494  1.0000
  C   C215      1.0  0.12094  0.67906  0.36812  1.0000
  C   C216      1.0  0.10706  0.69553  0.37211  1.0000
  H   H95       1.0  0.09223  0.69119  0.42161  1.0000
  O   O18       1.0  0.11389  0.65801  0.43026  1.0000
  H   H96       1.0  0.12579  0.66732  0.48348  1.0000
  C   C217      1.0  0.24131  0.52804  0.31624  1.0000
  C   C218      1.0  0.26593  0.54914  0.36241  1.0000
  C   C219      1.0  0.29207  0.54898  0.35694  1.0000
  H   H97       1.0  0.30896  0.56311  0.39579  1.0000
  O   O19       1.0  0.26458  0.56847  0.41826  1.0000
  H   H98       1.0  0.25877  0.55919  0.47747  1.0000
  C   C220      1.0  0.48256  0.71551  0.31680  1.0000
  C   C221      1.0  0.46135  0.71897  0.36250  1.0000
  C   C222      1.0  0.46148  0.74526  0.35688  1.0000
  H   H99       1.0  0.44729  0.74797  0.39553  1.0000
  O   O20       1.0  0.44192  0.69825  0.41801  1.0000
  H   H100      1.0  0.45110  0.70166  0.47738  1.0000
  C   C223      1.0  0.29476  0.76900  0.31714  1.0000
  C   C224      1.0  0.29127  0.74435  0.36308  1.0000
  C   C225      1.0  0.26498  0.71820  0.35750  1.0000
  H   H101      1.0  0.26223  0.70133  0.39645  1.0000
  O   O21       1.0  0.31199  0.74568  0.41867  1.0000
  H   H102      1.0  0.30855  0.75145  0.47801  1.0000
  C   C226      1.0  0.77119  0.48060  0.31790  1.0000
  C   C227      1.0  0.74651  0.45936  0.36348  1.0000
  C   C228      1.0  0.72037  0.45950  0.35799  1.0000
  H   H103      1.0  0.70343  0.44526  0.39647  1.0000
  O   O22       1.0  0.74779  0.43986  0.41873  1.0000
  H   H104      1.0  0.75357  0.44899  0.47818  1.0000
  C   C229      1.0  0.52991  0.29271  0.31671  1.0000
  C   C230      1.0  0.55107  0.28922  0.36260  1.0000
  C   C231      1.0  0.55092  0.26292  0.35703  1.0000
  H   H105      1.0  0.56511  0.26019  0.39566  1.0000
  O   O23       1.0  0.57049  0.30994  0.41816  1.0000
  H   H106      1.0  0.56129  0.30649  0.47752  1.0000
  C   C232      1.0  0.71742  0.23915  0.31612  1.0000
  C   C233      1.0  0.72093  0.26378  0.36215  1.0000
  C   C234      1.0  0.74721  0.28994  0.35653  1.0000
  H   H107      1.0  0.74998  0.30683  0.39535  1.0000
  O   O24       1.0  0.70024  0.26245  0.41791  1.0000
  H   H108      1.0  0.70372  0.25669  0.47720  1.0000
  C   C235      1.0  0.17584  0.61577  0.36775  1.0000
  C   C236      1.0  0.19759  0.61340  0.41355  1.0000
  C   C237      1.0  0.19745  0.58731  0.41725  1.0000
  H   H109      1.0  0.21449  0.58720  0.44747  1.0000
  H   H110      1.0  0.21475  0.63108  0.44113  1.0000
  C   C238      1.0  0.39450  0.56223  0.36719  1.0000
  C   C239      1.0  0.39688  0.58635  0.41305  1.0000
  C   C240      1.0  0.42298  0.61228  0.41683  1.0000
  H   H111      1.0  0.42310  0.62944  0.44703  1.0000
  H   H112      1.0  0.37919  0.58587  0.44039  1.0000
  C   C241      1.0  0.44809  0.83434  0.36717  1.0000
  C   C242      1.0  0.42395  0.81254  0.41283  1.0000
  C   C243      1.0  0.39801  0.81269  0.41670  1.0000
  H   H113      1.0  0.38084  0.79560  0.44673  1.0000
  H   H114      1.0  0.42444  0.79533  0.44010  1.0000
  C   C244      1.0  0.83633  0.39236  0.36690  1.0000
  C   C245      1.0  0.81454  0.39472  0.41250  1.0000
  C   C246      1.0  0.81472  0.42082  0.41642  1.0000
  H   H115      1.0  0.79767  0.42093  0.44660  1.0000
  H   H116      1.0  0.79734  0.37702  0.43987  1.0000
  C   C247      1.0  0.61783  0.44600  0.36779  1.0000
  C   C248      1.0  0.61549  0.42185  0.41337  1.0000
  C   C249      1.0  0.58940  0.39590  0.41712  1.0000
  H   H117      1.0  0.58933  0.37872  0.44702  1.0000
  H   H118      1.0  0.63319  0.42233  0.44064  1.0000
  C   C250      1.0  0.56423  0.17378  0.36705  1.0000
  C   C251      1.0  0.58835  0.19552  0.41292  1.0000
  C   C252      1.0  0.61427  0.19534  0.41684  1.0000
  H   H119      1.0  0.63143  0.21240  0.44699  1.0000
  H   H120      1.0  0.58783  0.21269  0.44043  1.0000
  C   C253      1.0  0.03841  0.30235  0.34175  1.0000
  C   C254      1.0  0.02181  0.27348  0.37172  1.0000
  C   C255      1.0  0.99130  0.25885  0.36874  1.0000
  H   H121      1.0  0.98007  0.23841  0.39356  1.0000
  O   O25       1.0  0.03474  0.25948  0.40675  1.0000
  H   H122      1.0  0.03739  0.26416  0.47119  1.0000
  C   C256      1.0  0.70805  0.73822  0.34110  1.0000
  C   C257      1.0  0.73682  0.75037  0.37189  1.0000
  C   C258      1.0  0.75145  0.73450  0.36881  1.0000
  H   H123      1.0  0.77178  0.74358  0.39438  1.0000
  O   O26       1.0  0.75071  0.77718  0.40789  1.0000
  H   H124      1.0  0.74582  0.77491  0.47220  1.0000
  C   C259      1.0  0.27215  0.97190  0.34138  1.0000
  C   C260      1.0  0.25993  0.98851  0.37174  1.0000
  C   C261      1.0  0.27579  0.01901  0.36871  1.0000
  H   H125      1.0  0.26665  0.03025  0.39394  1.0000
  O   O27       1.0  0.23306  0.97557  0.40729  1.0000
  H   H126      1.0  0.23522  0.97292  0.47165  1.0000
  C   C262      1.0  0.97393  0.70599  0.34071  1.0000
  C   C263      1.0  0.99051  0.73475  0.37164  1.0000
  C   C264      1.0  0.02102  0.74941  0.36872  1.0000
  H   H127      1.0  0.03224  0.76972  0.39445  1.0000
  O   O28       1.0  0.97754  0.74859  0.40771  1.0000
  H   H128      1.0  0.97489  0.74366  0.47197  1.0000
  C   C265      1.0  0.30441  0.27014  0.34171  1.0000
  C   C266      1.0  0.27553  0.25789  0.37160  1.0000
  C   C267      1.0  0.26091  0.27378  0.36854  1.0000
  H   H129      1.0  0.24047  0.26459  0.39327  1.0000
  O   O29       1.0  0.26151  0.23096  0.40667  1.0000
  H   H130      1.0  0.26618  0.23300  0.47112  1.0000
  C   C268      1.0  0.74025  0.03632  0.34140  1.0000
  C   C269      1.0  0.75243  0.01970  0.37195  1.0000
  C   C270      1.0  0.73655  0.98920  0.36890  1.0000
  H   H131      1.0  0.74565  0.97795  0.39430  1.0000
  O   O30       1.0  0.77926  0.03262  0.40771  1.0000
  H   H132      1.0  0.77706  0.03525  0.47204  1.0000
  C   C271      1.0  0.13922  0.32176  0.33601  1.0000
  C   C272      1.0  0.14611  0.30602  0.39789  1.0000
  C   C273      1.0  0.17253  0.30613  0.39147  1.0000
  H   H133      1.0  0.17781  0.29645  0.44119  1.0000
  O   O31       1.0  0.12839  0.29228  0.46838  1.0000
  H   H134      1.0  0.13486  0.30613  0.51821  1.0000
  C   C274      1.0  0.68838  0.81945  0.33601  1.0000
  C   C275      1.0  0.70435  0.84217  0.39738  1.0000
  C   C276      1.0  0.70422  0.86847  0.39101  1.0000
  H   H135      1.0  0.71408  0.88353  0.44035  1.0000
  O   O32       1.0  0.71831  0.83829  0.46743  1.0000
  H   H136      1.0  0.70461  0.83094  0.51764  1.0000
  C   C277      1.0  0.19086  0.87102  0.33570  1.0000
  C   C278      1.0  0.16820  0.86429  0.39734  1.0000
  C   C279      1.0  0.14189  0.83786  0.39114  1.0000
  H   H137      1.0  0.12687  0.83270  0.44061  1.0000
  O   O33       1.0  0.17217  0.88213  0.46745  1.0000
  H   H138      1.0  0.17954  0.87575  0.51755  1.0000
  C   C280      1.0  0.87303  0.68627  0.33533  1.0000
  C   C281      1.0  0.86628  0.70220  0.39688  1.0000
  C   C282      1.0  0.83985  0.70209  0.39065  1.0000
  H   H139      1.0  0.83467  0.71194  0.44008  1.0000
  O   O34       1.0  0.88415  0.71614  0.46687  1.0000
  H   H140      1.0  0.87780  0.70243  0.51706  1.0000
  C   C283      1.0  0.32378  0.18872  0.33613  1.0000
  C   C284      1.0  0.30806  0.16608  0.39797  1.0000
  C   C285      1.0  0.30817  0.13977  0.39150  1.0000
  H   H141      1.0  0.29851  0.12480  0.44120  1.0000
  O   O35       1.0  0.29430  0.17003  0.46847  1.0000
  H   H142      1.0  0.30815  0.17743  0.51829  1.0000
  C   C286      1.0  0.82158  0.13717  0.33613  1.0000
  C   C287      1.0  0.84419  0.14398  0.39798  1.0000
  C   C288      1.0  0.87051  0.17041  0.39165  1.0000
  H   H143      1.0  0.88545  0.17565  0.44139  1.0000
  O   O36       1.0  0.84019  0.12622  0.46839  1.0000
  H   H144      1.0  0.83280  0.13268  0.51826  1.0000
