data_image0
_chemical_formula_structural       C4NC2NH2C4NC2NH2C4NC2NH2C4NC2NH2C4NC2NH2C4NC2NH2C2H2C2H3C2H2C2H2C2H2C2H2C2H4C2H4C2H4C2H4C2H4C2H4C4NC2NH2C4NC2NH2C4NC2NH2C4NC2NH2C4NC2NH2C4NC2NH2C2H2C2H2C2H2C2H2C2H2C2H2C2H2C2H2C2H2C2H2C2H2C2H2C4NC2NH2C4NC2NH2C4NC2NH2C4NC2NH2C4NC2NH2C4NC2NH2C2H2C2H2C2H2C2H2C2H2C2H2C4NC2NH2C4NC2NH2C4NC2NH2C4NC2NH2C4NC2NH2C4NC2NH2CNCNCNCNCNCNCNCNCNCNCNCNCNCNCNCNCNCNCNCNCNCNCNCNCNCNCNCNCNCNCNCNCNCNCNCNCNCNCNCNCNCNCNCNCNCNCNCNCNCNCNCNCNCNCNCNCNCNCNCNCNCNCNCNCNCNCNCNCNCNCNCNCNCNCNCNCNCNCNCNCNCNCNCNCNCNCNCNCNCNCNCNCNCNCNCNCNCNCNCNCNCNCNCNCNCNCNCNC2H2C2H2C2H2C2H2C2H2C2H2C4NC2NH2C4NC2NHC4NC2NH2C4NC2NH2C4NC2NH2C4NC2NH2C4NC2NC4NC2NC4NC2NC4NC2NC4NC2NC4NC2NC2H2C2H2C2H2C2H2C2H2C2H2C4NC2NH2C4NC2NH2C4NC2NH2C4NC2NH2C4NC2NH2C4NC2NH2C4NC2NH2C4NC2NH2C4NC2NH2C4NC2NH2C4NC2NH2C4NC2NH2C2H2C2H2C2H2C2H2C2H2C2H2C4NC2NH2C4NC2NH2C4NC2NH2C4NC2NH2C4NC2NH2C4NC2NH2C2H2C2H2C2H2C2H2C2H2C2H2
_chemical_formula_sum              "C540 N216 H216"
_cell_length_a       67.0865
_cell_length_b       67.0865
_cell_length_c       14.8824
_cell_angle_alpha    90
_cell_angle_beta     90
_cell_angle_gamma    120

_space_group_name_H-M_alt    "P 1"
_space_group_IT_number       1

loop_
  _space_group_symop_operation_xyz
  'x, y, z'

loop_
  _atom_site_type_symbol
  _atom_site_label
  _atom_site_symmetry_multiplicity
  _atom_site_fract_x
  _atom_site_fract_y
  _atom_site_fract_z
  _atom_site_occupancy
  C   C1        1.0  0.13217  0.32313  0.30793  1.0000
  C   C2        1.0  0.12849  0.33562  0.23944  1.0000
  C   C3        1.0  0.12841  0.35647  0.25883  1.0000
  C   C4        1.0  0.13405  0.36621  0.34630  1.0000
  N   N1        1.0  0.12606  0.36810  0.18834  1.0000
  C   C5        1.0  0.12303  0.36056  0.10218  1.0000
  C   C6        1.0  0.12311  0.34009  0.08344  1.0000
  N   N2        1.0  0.12599  0.32855  0.15231  1.0000
  H   H1        1.0  0.12137  0.36999  0.05189  1.0000
  H   H2        1.0  0.12134  0.33409  0.01918  1.0000
  C   C7        1.0  0.68675  0.81097  0.30776  1.0000
  C   C8        1.0  0.67427  0.79487  0.23906  1.0000
  C   C9        1.0  0.65344  0.77392  0.25844  1.0000
  C   C10       1.0  0.64375  0.76977  0.34601  1.0000
  N   N3        1.0  0.64179  0.75999  0.18790  1.0000
  C   C11       1.0  0.64930  0.76455  0.10170  1.0000
  C   C12       1.0  0.66975  0.78511  0.08299  1.0000
  N   N4        1.0  0.68132  0.79950  0.15192  1.0000
  H   H3        1.0  0.63984  0.75349  0.05136  1.0000
  H   H4        1.0  0.67571  0.78939  0.01869  1.0000
  C   C13       1.0  0.19889  0.87792  0.30775  1.0000
  C   C14       1.0  0.21502  0.88146  0.23925  1.0000
  C   C15       1.0  0.23598  0.88164  0.25902  1.0000
  C   C16       1.0  0.24011  0.87621  0.34685  1.0000
  N   N5        1.0  0.24992  0.88382  0.18864  1.0000
  C   C17       1.0  0.24537  0.88663  0.10226  1.0000
  C   C18       1.0  0.22482  0.88651  0.08320  1.0000
  N   N6        1.0  0.21040  0.88374  0.15195  1.0000
  H   H5        1.0  0.25645  0.88820  0.05209  1.0000
  H   H6        1.0  0.22055  0.88809  0.01877  1.0000
  C   C19       1.0  0.87973  0.68480  0.31047  1.0000
  C   C20       1.0  0.88344  0.67251  0.24116  1.0000
  C   C21       1.0  0.88355  0.65163  0.25952  1.0000
  C   C22       1.0  0.87791  0.64171  0.34671  1.0000
  N   N7        1.0  0.88583  0.64013  0.18840  1.0000
  C   C23       1.0  0.88878  0.64784  0.10249  1.0000
  C   C24       1.0  0.88869  0.66835  0.08474  1.0000
  N   N8        1.0  0.88586  0.67975  0.15428  1.0000
  H   H7        1.0  0.89042  0.63852  0.05169  1.0000
  H   H8        1.0  0.89040  0.67447  0.02070  1.0000
  C   C25       1.0  0.32509  0.19684  0.30790  1.0000
  C   C26       1.0  0.33757  0.21301  0.23940  1.0000
  C   C27       1.0  0.35843  0.23394  0.25878  1.0000
  C   C28       1.0  0.36816  0.23804  0.34625  1.0000
  N   N9        1.0  0.37005  0.24792  0.18829  1.0000
  C   C29       1.0  0.36251  0.24341  0.10213  1.0000
  C   C30       1.0  0.34204  0.22286  0.08340  1.0000
  N   N10       1.0  0.33050  0.20844  0.15228  1.0000
  H   H9        1.0  0.37194  0.25450  0.05184  1.0000
  H   H10       1.0  0.33604  0.21863  0.01914  1.0000
  C   C31       1.0  0.81282  0.12990  0.30614  1.0000
  C   C32       1.0  0.79671  0.12643  0.23772  1.0000
  C   C33       1.0  0.77578  0.12630  0.25766  1.0000
  C   C34       1.0  0.77170  0.13172  0.34553  1.0000
  N   N11       1.0  0.76181  0.12412  0.18741  1.0000
  C   C35       1.0  0.76630  0.12127  0.10100  1.0000
  C   C36       1.0  0.78684  0.12139  0.08175  1.0000
  N   N12       1.0  0.80128  0.12413  0.15039  1.0000
  H   H11       1.0  0.75522  0.11975  0.05089  1.0000
  H   H12       1.0  0.79108  0.11979  0.01729  1.0000
  C   C37       1.0  0.35692  0.12448  0.29033  1.0000
  C   C38       1.0  0.33704  0.12535  0.26588  1.0000
  H   H13       1.0  0.33360  0.12553  0.19889  1.0000
  H   H14       1.0  0.36734  0.12463  0.23969  1.0000
  C   C39       1.0  0.77534  0.65318  0.29204  1.0000
  C   C40       1.0  0.79610  0.67316  0.26844  1.0000
  H   H15       1.0  0.79634  0.65924  0.00036  1.0000
  H   H16       1.0  0.79983  0.67674  0.20159  1.0000
  H   H17       1.0  0.76513  0.64284  0.24108  1.0000
  C   C41       1.0  0.88467  0.23406  0.28770  1.0000
  C   C42       1.0  0.88353  0.21317  0.26351  1.0000
  H   H18       1.0  0.88281  0.20927  0.19658  1.0000
  H   H19       1.0  0.88400  0.24405  0.23701  1.0000
  C   C43       1.0  0.65483  0.88327  0.29022  1.0000
  C   C44       1.0  0.67465  0.88223  0.26615  1.0000
  H   H20       1.0  0.67800  0.88182  0.19921  1.0000
  H   H21       1.0  0.64430  0.88282  0.23942  1.0000
  C   C45       1.0  0.23636  0.35495  0.29046  1.0000
  C   C46       1.0  0.21561  0.33508  0.26599  1.0000
  H   H22       1.0  0.21200  0.33164  0.19900  1.0000
  H   H23       1.0  0.24664  0.36538  0.23983  1.0000
  C   C47       1.0  0.12678  0.77371  0.28701  1.0000
  C   C48       1.0  0.12773  0.79453  0.26302  1.0000
  H   H24       1.0  0.12837  0.79842  0.19612  1.0000
  H   H25       1.0  0.12734  0.76366  0.23639  1.0000
  C   C49       1.0  0.23839  0.44624  0.40457  1.0000
  C   C50       1.0  0.21771  0.44707  0.39951  1.0000
  H   H26       1.0  0.20821  0.38125  0.02594  1.0000
  H   H27       1.0  0.17229  0.38242  0.01593  1.0000
  H   H28       1.0  0.21603  0.45621  0.34779  1.0000
  H   H29       1.0  0.25059  0.45484  0.35618  1.0000
  C   C51       1.0  0.56361  0.79410  0.40460  1.0000
  C   C52       1.0  0.56282  0.77261  0.39940  1.0000
  H   H30       1.0  0.62883  0.82905  0.02529  1.0000
  H   H31       1.0  0.62772  0.79199  0.01517  1.0000
  H   H32       1.0  0.55373  0.76178  0.34769  1.0000
  H   H33       1.0  0.55503  0.79772  0.35621  1.0000
  C   C53       1.0  0.21568  0.77164  0.40575  1.0000
  C   C54       1.0  0.23719  0.79233  0.40104  1.0000
  H   H34       1.0  0.18002  0.80202  0.02341  1.0000
  H   H35       1.0  0.21710  0.83795  0.01412  1.0000
  H   H36       1.0  0.24818  0.79399  0.35004  1.0000
  H   H37       1.0  0.21223  0.75934  0.35799  1.0000
  C   C55       1.0  0.77334  0.56146  0.40248  1.0000
  C   C56       1.0  0.79398  0.56055  0.39734  1.0000
  H   H38       1.0  0.80342  0.62589  0.02577  1.0000
  H   H39       1.0  0.83935  0.62478  0.01516  1.0000
  H   H40       1.0  0.79568  0.55159  0.34506  1.0000
  H   H41       1.0  0.76111  0.55297  0.35409  1.0000
  C   C57       1.0  0.44820  0.21373  0.40441  1.0000
  C   C58       1.0  0.44903  0.23525  0.39934  1.0000
  H   H42       1.0  0.38323  0.17893  0.02584  1.0000
  H   H43       1.0  0.38439  0.21601  0.01582  1.0000
  H   H44       1.0  0.45816  0.24606  0.34761  1.0000
  H   H45       1.0  0.45680  0.21013  0.35601  1.0000
  C   C59       1.0  0.79609  0.23625  0.40604  1.0000
  C   C60       1.0  0.77461  0.21552  0.40106  1.0000
  H   H46       1.0  0.83178  0.20580  0.02344  1.0000
  H   H47       1.0  0.79472  0.16984  0.01390  1.0000
  H   H48       1.0  0.76367  0.21382  0.34986  1.0000
  H   H49       1.0  0.79958  0.24849  0.35799  1.0000
  C   C61       1.0  0.10848  0.46274  0.29746  1.0000
  C   C62       1.0  0.10297  0.44291  0.24541  1.0000
  C   C63       1.0  0.11637  0.43180  0.25153  1.0000
  C   C64       1.0  0.13553  0.44004  0.31077  1.0000
  N   N13       1.0  0.11002  0.41298  0.19864  1.0000
  C   C65       1.0  0.09193  0.40432  0.14123  1.0000
  C   C66       1.0  0.07879  0.41524  0.13554  1.0000
  N   N14       1.0  0.08480  0.43399  0.18752  1.0000
  H   H50       1.0  0.08802  0.39014  0.10326  1.0000
  H   H51       1.0  0.06500  0.40930  0.09320  1.0000
  C   C67       1.0  0.54713  0.64774  0.29755  1.0000
  C   C68       1.0  0.56695  0.66203  0.24542  1.0000
  C   C69       1.0  0.57808  0.68654  0.25144  1.0000
  C   C70       1.0  0.56986  0.69750  0.31061  1.0000
  N   N15       1.0  0.59690  0.69899  0.19850  1.0000
  C   C71       1.0  0.60554  0.68953  0.14113  1.0000
  C   C72       1.0  0.59460  0.66546  0.13554  1.0000
  N   N16       1.0  0.57586  0.65276  0.18758  1.0000
  H   H52       1.0  0.61971  0.69978  0.10311  1.0000
  H   H53       1.0  0.60052  0.65759  0.09324  1.0000
  C   C73       1.0  0.36208  0.90138  0.29862  1.0000
  C   C74       1.0  0.34780  0.90691  0.24646  1.0000
  C   C75       1.0  0.32329  0.89358  0.25264  1.0000
  C   C76       1.0  0.31233  0.87446  0.31208  1.0000
  N   N17       1.0  0.31085  0.89995  0.19963  1.0000
  C   C77       1.0  0.32032  0.91801  0.14205  1.0000
  C   C78       1.0  0.34438  0.93109  0.13631  1.0000
  N   N18       1.0  0.35708  0.92505  0.18840  1.0000
  H   H54       1.0  0.31008  0.92193  0.10400  1.0000
  H   H55       1.0  0.35226  0.94485  0.09386  1.0000
  C   C79       1.0  0.90343  0.54518  0.29668  1.0000
  C   C80       1.0  0.90900  0.56505  0.24477  1.0000
  C   C81       1.0  0.89562  0.57617  0.25073  1.0000
  C   C82       1.0  0.87640  0.56790  0.30967  1.0000
  N   N19       1.0  0.90203  0.59503  0.19802  1.0000
  C   C83       1.0  0.92018  0.60372  0.14088  1.0000
  C   C84       1.0  0.93331  0.59279  0.13533  1.0000
  N   N20       1.0  0.92724  0.57400  0.18715  1.0000
  H   H56       1.0  0.92414  0.61792  0.10302  1.0000
  H   H57       1.0  0.94715  0.59875  0.09320  1.0000
  C   C85       1.0  0.46467  0.36015  0.29739  1.0000
  C   C86       1.0  0.44484  0.34582  0.24537  1.0000
  C   C87       1.0  0.43373  0.32131  0.25148  1.0000
  C   C88       1.0  0.44199  0.31040  0.31068  1.0000
  N   N21       1.0  0.41490  0.30884  0.19863  1.0000
  C   C89       1.0  0.40623  0.31827  0.14126  1.0000
  C   C90       1.0  0.41714  0.34233  0.13559  1.0000
  N   N22       1.0  0.43589  0.35506  0.18753  1.0000
  H   H58       1.0  0.39205  0.30800  0.10332  1.0000
  H   H59       1.0  0.41119  0.35018  0.09328  1.0000
  C   C91       1.0  0.64973  0.10650  0.29840  1.0000
  C   C92       1.0  0.66402  0.10101  0.24602  1.0000
  C   C93       1.0  0.68853  0.11438  0.25206  1.0000
  C   C94       1.0  0.69949  0.13349  0.31152  1.0000
  N   N23       1.0  0.70096  0.10805  0.19885  1.0000
  C   C95       1.0  0.69149  0.09000  0.14121  1.0000
  C   C96       1.0  0.66743  0.07689  0.13563  1.0000
  N   N24       1.0  0.65473  0.08288  0.18792  1.0000
  H   H60       1.0  0.70174  0.08611  0.10301  1.0000
  H   H61       1.0  0.65955  0.06313  0.09315  1.0000
  C   C97       1.0  0.44457  0.12611  0.26887  1.0000
  C   C98       1.0  0.45613  0.11348  0.25926  1.0000
  H   H62       1.0  0.46018  0.11062  0.19600  1.0000
  H   H63       1.0  0.44068  0.13223  0.21251  1.0000
  C   C99       1.0  0.68932  0.56460  0.26885  1.0000
  C   C100      1.0  0.66513  0.55302  0.25940  1.0000
  H   H64       1.0  0.65818  0.54850  0.19634  1.0000
  H   H65       1.0  0.69931  0.56801  0.21260  1.0000
  C   C101      1.0  0.88364  0.32039  0.26842  1.0000
  C   C102      1.0  0.89628  0.34458  0.25884  1.0000
  H   H66       1.0  0.89915  0.35150  0.19560  1.0000
  H   H67       1.0  0.87751  0.31038  0.21203  1.0000
  C   C103      1.0  0.56660  0.88115  0.26919  1.0000
  C   C104      1.0  0.55503  0.89377  0.25972  1.0000
  H   H68       1.0  0.55053  0.89623  0.19665  1.0000
  H   H69       1.0  0.57003  0.87459  0.21294  1.0000
  C   C105      1.0  0.32236  0.44274  0.26898  1.0000
  C   C106      1.0  0.34655  0.45431  0.25932  1.0000
  H   H70       1.0  0.35345  0.45845  0.19608  1.0000
  H   H71       1.0  0.31234  0.43895  0.21266  1.0000
  C   C107      1.0  0.12711  0.68758  0.26766  1.0000
  C   C108      1.0  0.11450  0.66340  0.25794  1.0000
  H   H72       1.0  0.11088  0.65653  0.19455  1.0000
  H   H73       1.0  0.13247  0.69764  0.21119  1.0000
  C   C109      1.0  0.09436  0.21117  0.27777  1.0000
  C   C110      1.0  0.10693  0.23540  0.27389  1.0000
  H   H74       1.0  0.10224  0.24344  0.22686  1.0000
  H   H75       1.0  0.08104  0.20258  0.23351  1.0000
  C   C111      1.0  0.79861  0.88509  0.27809  1.0000
  C   C112      1.0  0.77438  0.87342  0.27433  1.0000
  H   H76       1.0  0.76634  0.86068  0.22736  1.0000
  H   H77       1.0  0.80720  0.88035  0.23385  1.0000
  C   C113      1.0  0.12444  0.91529  0.27585  1.0000
  C   C114      1.0  0.13612  0.90274  0.27196  1.0000
  H   H78       1.0  0.14865  0.90724  0.22416  1.0000
  H   H79       1.0  0.12893  0.92840  0.23079  1.0000
  C   C115      1.0  0.91730  0.79661  0.27739  1.0000
  C   C116      1.0  0.90469  0.77237  0.27387  1.0000
  H   H80       1.0  0.90930  0.76427  0.22678  1.0000
  H   H81       1.0  0.93053  0.80515  0.23273  1.0000
  C   C117      1.0  0.21313  0.12271  0.27771  1.0000
  C   C118      1.0  0.23736  0.13437  0.27385  1.0000
  H   H82       1.0  0.24541  0.14711  0.22689  1.0000
  H   H83       1.0  0.20454  0.12746  0.23350  1.0000
  C   C119      1.0  0.88705  0.09231  0.27797  1.0000
  C   C120      1.0  0.87534  0.10483  0.27403  1.0000
  H   H84       1.0  0.86263  0.10011  0.22690  1.0000
  H   H85       1.0  0.88236  0.07900  0.23373  1.0000
  C   C121      1.0  0.09391  0.52768  0.31300  1.0000
  C   C122      1.0  0.09217  0.53776  0.23180  1.0000
  C   C123      1.0  0.09180  0.55883  0.23258  1.0000
  C   C124      1.0  0.09325  0.57023  0.31455  1.0000
  N   N25       1.0  0.08864  0.56688  0.15291  1.0000
  C   C125      1.0  0.08616  0.55607  0.07326  1.0000
  C   C126      1.0  0.08650  0.53532  0.07248  1.0000
  N   N26       1.0  0.08931  0.52692  0.15140  1.0000
  H   H86       1.0  0.08382  0.56282  0.01537  1.0000
  H   H87       1.0  0.08442  0.52652  0.01400  1.0000
  C   C127      1.0  0.48213  0.56824  0.31252  1.0000
  C   C128      1.0  0.47218  0.55633  0.23137  1.0000
  C   C129      1.0  0.45113  0.53487  0.23215  1.0000
  C   C130      1.0  0.43961  0.52498  0.31402  1.0000
  N   N27       1.0  0.44319  0.52357  0.15256  1.0000
  C   C131      1.0  0.45410  0.53184  0.07301  1.0000
  C   C132      1.0  0.47482  0.55295  0.07225  1.0000
  N   N28       1.0  0.48311  0.56424  0.15109  1.0000
  H   H88       1.0  0.44743  0.52267  0.01520  1.0000
  H   H89       1.0  0.48370  0.55962  0.01386  1.0000
  C   C133      1.0  0.44159  0.91587  0.31298  1.0000
  C   C134      1.0  0.45359  0.91806  0.23180  1.0000
  C   C135      1.0  0.47505  0.91847  0.23235  1.0000
  C   C136      1.0  0.48486  0.91661  0.31406  1.0000
  N   N29       1.0  0.48641  0.92203  0.15279  1.0000
  C   C137      1.0  0.47821  0.92487  0.07345  1.0000
  C   C138      1.0  0.45709  0.92448  0.07289  1.0000
  N   N30       1.0  0.44574  0.92128  0.15172  1.0000
  H   H90       1.0  0.48741  0.92750  0.01564  1.0000
  H   H91       1.0  0.45046  0.92683  0.01467  1.0000
  C   C139      1.0  0.91797  0.48021  0.31206  1.0000
  C   C140      1.0  0.92018  0.47041  0.23094  1.0000
  C   C141      1.0  0.92056  0.44934  0.23169  1.0000
  C   C142      1.0  0.91864  0.43768  0.31348  1.0000
  N   N31       1.0  0.92414  0.44151  0.15223  1.0000
  C   C143      1.0  0.92704  0.45255  0.07283  1.0000
  C   C144      1.0  0.92669  0.47329  0.07209  1.0000
  N   N32       1.0  0.92346  0.48147  0.15080  1.0000
  H   H92       1.0  0.92967  0.44595  0.01511  1.0000
  H   H93       1.0  0.92907  0.48226  0.01382  1.0000
  C   C145      1.0  0.52962  0.43966  0.31244  1.0000
  C   C146      1.0  0.53965  0.45147  0.23121  1.0000
  C   C147      1.0  0.56071  0.47293  0.23191  1.0000
  C   C148      1.0  0.57213  0.48288  0.31382  1.0000
  N   N33       1.0  0.56872  0.48416  0.15222  1.0000
  C   C149      1.0  0.55787  0.47582  0.07263  1.0000
  C   C150      1.0  0.53714  0.45471  0.07192  1.0000
  N   N34       1.0  0.52878  0.44349  0.15086  1.0000
  H   H94       1.0  0.56460  0.48491  0.01473  1.0000
  H   H95       1.0  0.52832  0.44798  0.01348  1.0000
  C   C151      1.0  0.57023  0.09199  0.31294  1.0000
  C   C152      1.0  0.55832  0.09000  0.23178  1.0000
  C   C153      1.0  0.53686  0.08960  0.23250  1.0000
  C   C154      1.0  0.52697  0.09126  0.31432  1.0000
  N   N35       1.0  0.52556  0.08622  0.15290  1.0000
  C   C155      1.0  0.53382  0.08356  0.07338  1.0000
  C   C156      1.0  0.55493  0.08393  0.07268  1.0000
  N   N36       1.0  0.56622  0.08695  0.15154  1.0000
  H   H96       1.0  0.52466  0.08105  0.01556  1.0000
  H   H97       1.0  0.56159  0.08170  0.01433  1.0000
  C   C157      1.0  0.01899  0.43260  0.27314  1.0000
  C   C158      1.0  0.99472  0.42001  0.27470  1.0000
  H   H98       1.0  0.98625  0.40762  0.22681  1.0000
  H   H99       1.0  0.02741  0.42895  0.22415  1.0000
  C   C159      1.0  0.57729  0.58843  0.27418  1.0000
  C   C160      1.0  0.58988  0.57675  0.27586  1.0000
  H   H100      1.0  0.60230  0.58071  0.22811  1.0000
  H   H101      1.0  0.58101  0.60057  0.22540  1.0000
  C   C161      1.0  0.42143  0.99083  0.27441  1.0000
  C   C162      1.0  0.43314  0.01510  0.27589  1.0000
  H   H102      1.0  0.42914  0.02356  0.22823  1.0000
  H   H103      1.0  0.40929  0.98241  0.22564  1.0000
  C   C163      1.0  0.99289  0.57538  0.27344  1.0000
  C   C164      1.0  0.01716  0.58798  0.27510  1.0000
  H   H104      1.0  0.02563  0.60037  0.22724  1.0000
  H   H105      1.0  0.98448  0.57904  0.22442  1.0000
  C   C165      1.0  0.43452  0.41949  0.27351  1.0000
  C   C166      1.0  0.42194  0.43119  0.27513  1.0000
  H   H106      1.0  0.40951  0.42723  0.22741  1.0000
  H   H107      1.0  0.43081  0.40737  0.22464  1.0000
  C   C167      1.0  0.59040  0.01703  0.27436  1.0000
  C   C168      1.0  0.57872  0.99275  0.27599  1.0000
  H   H108      1.0  0.58267  0.98429  0.22818  1.0000
  H   H109      1.0  0.60253  0.02544  0.22557  1.0000
  C   C169      1.0  0.12785  0.10317  0.31696  1.0000
  C   C170      1.0  0.10879  0.09659  0.25879  1.0000
  C   C171      1.0  0.09603  0.10843  0.25978  1.0000
  C   C172      1.0  0.10193  0.12715  0.31912  1.0000
  N   N37       1.0  0.07887  0.10205  0.19819  1.0000
  C   C173      1.0  0.07326  0.08511  0.13703  1.0000
  C   C174      1.0  0.08576  0.07353  0.13609  1.0000
  N   N38       1.0  0.10299  0.07971  0.19642  1.0000
  H   H110      1.0  0.06066  0.08132  0.09085  1.0000
  H   H111      1.0  0.08240  0.06118  0.08923  1.0000
  C   C175      1.0  0.90664  0.02665  0.31720  1.0000
  C   C176      1.0  0.91325  0.01419  0.25908  1.0000
  C   C177      1.0  0.90142  0.98960  0.25999  1.0000
  C   C178      1.0  0.88266  0.97676  0.31914  1.0000
  N   N39       1.0  0.90784  0.97884  0.19850  1.0000
  C   C179      1.0  0.92483  0.99017  0.13753  1.0000
  C   C180      1.0  0.93641  0.01426  0.13666  1.0000
  N   N40       1.0  0.93018  0.02529  0.19687  1.0000
  H   H112      1.0  0.92863  0.98138  0.09133  1.0000
  H   H113      1.0  0.94876  0.02325  0.08982  1.0000
  C   C181      1.0  0.98316  0.88194  0.31639  1.0000
  C   C182      1.0  0.99563  0.90105  0.25848  1.0000
  C   C183      1.0  0.02022  0.91381  0.25943  1.0000
  C   C184      1.0  0.03305  0.90785  0.31848  1.0000
  N   N41       1.0  0.03099  0.93102  0.19802  1.0000
  C   C185      1.0  0.01966  0.93669  0.13712  1.0000
  C   C186      1.0  0.99557  0.92422  0.13634  1.0000
  N   N42       1.0  0.98454  0.90692  0.19640  1.0000
  H   H114      1.0  0.02846  0.94934  0.09107  1.0000
  H   H115      1.0  0.98658  0.92761  0.08960  1.0000
  C   C187      1.0  0.88391  0.90469  0.31674  1.0000
  C   C188      1.0  0.90299  0.91131  0.25864  1.0000
  C   C189      1.0  0.91575  0.89947  0.25948  1.0000
  C   C190      1.0  0.90983  0.88071  0.31861  1.0000
  N   N43       1.0  0.93293  0.90590  0.19798  1.0000
  C   C191      1.0  0.93857  0.92289  0.13701  1.0000
  C   C192      1.0  0.92607  0.93447  0.13624  1.0000
  N   N44       1.0  0.90882  0.92825  0.19648  1.0000
  H   H116      1.0  0.95121  0.92673  0.09094  1.0000
  H   H117      1.0  0.92947  0.94687  0.08956  1.0000
  C   C193      1.0  0.10511  0.98120  0.31654  1.0000
  C   C194      1.0  0.09848  0.99368  0.25863  1.0000
  C   C195      1.0  0.11032  0.01828  0.25967  1.0000
  C   C196      1.0  0.12909  0.03109  0.31878  1.0000
  N   N45       1.0  0.10387  0.02906  0.19838  1.0000
  C   C197      1.0  0.08686  0.01774  0.13744  1.0000
  C   C198      1.0  0.07529  0.99366  0.13643  1.0000
  N   N46       1.0  0.08153  0.98261  0.19648  1.0000
  H   H118      1.0  0.08301  0.02656  0.09150  1.0000
  H   H119      1.0  0.06289  0.98468  0.08974  1.0000
  C   C199      1.0  0.02860  0.12590  0.31715  1.0000
  C   C200      1.0  0.01613  0.10679  0.25922  1.0000
  C   C201      1.0  0.99154  0.09404  0.26017  1.0000
  C   C202      1.0  0.97871  0.10000  0.31922  1.0000
  N   N47       1.0  0.98076  0.07682  0.19882  1.0000
  C   C203      1.0  0.99210  0.07112  0.13800  1.0000
  C   C204      1.0  0.01619  0.08361  0.13713  1.0000
  N   N48       1.0  0.02722  0.10091  0.19717  1.0000
  H   H120      1.0  0.98330  0.05849  0.09191  1.0000
  H   H121      1.0  0.02518  0.08020  0.09044  1.0000
  C   C205      1.0  0.17565  0.42411  0.41587  1.0000
  N   N49       1.0  0.16753  0.43692  0.37581  1.0000
  C   C206      1.0  0.14661  0.42701  0.33303  1.0000
  N   N50       1.0  0.13499  0.40354  0.32383  1.0000
  C   C207      1.0  0.14235  0.38992  0.36207  1.0000
  N   N51       1.0  0.16245  0.40100  0.40735  1.0000
  C   C208      1.0  0.58588  0.75360  0.41538  1.0000
  N   N52       1.0  0.57303  0.73265  0.37555  1.0000
  C   C209      1.0  0.58292  0.72161  0.33290  1.0000
  N   N53       1.0  0.60640  0.73343  0.32360  1.0000
  C   C210      1.0  0.62002  0.75442  0.36168  1.0000
  N   N54       1.0  0.60899  0.76349  0.40694  1.0000
  C   C211      1.0  0.25610  0.83443  0.41640  1.0000
  N   N55       1.0  0.27711  0.84252  0.37700  1.0000
  C   C212      1.0  0.28823  0.86347  0.33438  1.0000
  N   N56       1.0  0.27645  0.87516  0.32491  1.0000
  C   C213      1.0  0.25547  0.86788  0.36294  1.0000
  N   N57       1.0  0.24631  0.84774  0.40797  1.0000
  C   C214      1.0  0.83605  0.58366  0.41357  1.0000
  N   N58       1.0  0.84427  0.57090  0.37384  1.0000
  C   C215      1.0  0.86528  0.58090  0.33172  1.0000
  N   N59       1.0  0.87692  0.60439  0.32307  1.0000
  C   C216      1.0  0.86943  0.61792  0.36115  1.0000
  N   N60       1.0  0.84927  0.60679  0.40594  1.0000
  C   C217      1.0  0.42607  0.25434  0.41573  1.0000
  N   N61       1.0  0.43888  0.27527  0.37568  1.0000
  C   C218      1.0  0.42896  0.28629  0.33293  1.0000
  N   N62       1.0  0.40548  0.27443  0.32377  1.0000
  C   C219      1.0  0.39187  0.25345  0.36200  1.0000
  N   N63       1.0  0.40296  0.24443  0.40725  1.0000
  C   C220      1.0  0.75568  0.17343  0.41632  1.0000
  N   N64       1.0  0.73470  0.16539  0.37674  1.0000
  C   C221      1.0  0.72360  0.14449  0.33382  1.0000
  N   N65       1.0  0.73539  0.13282  0.32403  1.0000
  C   C222      1.0  0.75639  0.14011  0.36186  1.0000
  N   N66       1.0  0.76552  0.16018  0.40738  1.0000
  C   C223      1.0  0.42330  0.17241  0.43537  1.0000
  N   N67       1.0  0.43587  0.16336  0.40059  1.0000
  C   C224      1.0  0.42545  0.14168  0.36499  1.0000
  N   N68       1.0  0.40198  0.12937  0.36002  1.0000
  C   C225      1.0  0.38878  0.13761  0.39547  1.0000
  N   N69       1.0  0.40005  0.15894  0.43201  1.0000
  C   C226      1.0  0.75693  0.58634  0.43442  1.0000
  N   N70       1.0  0.73533  0.57386  0.39940  1.0000
  C   C227      1.0  0.72407  0.58435  0.36438  1.0000
  N   N71       1.0  0.73525  0.60783  0.36026  1.0000
  C   C228      1.0  0.75673  0.62094  0.39552  1.0000
  N   N72       1.0  0.76674  0.60960  0.43174  1.0000
  C   C229      1.0  0.83754  0.25277  0.43572  1.0000
  N   N73       1.0  0.84646  0.27436  0.40083  1.0000
  C   C230      1.0  0.86807  0.28569  0.36448  1.0000
  N   N74       1.0  0.88040  0.27457  0.35867  1.0000
  C   C231      1.0  0.87227  0.25312  0.39392  1.0000
  N   N75       1.0  0.85103  0.24303  0.43120  1.0000
  C   C232      1.0  0.58850  0.83545  0.43565  1.0000
  N   N76       1.0  0.57593  0.84446  0.40048  1.0000
  C   C233      1.0  0.58633  0.86613  0.36474  1.0000
  N   N77       1.0  0.60980  0.87847  0.35987  1.0000
  C   C234      1.0  0.62299  0.87021  0.39523  1.0000
  N   N78       1.0  0.61174  0.84891  0.43200  1.0000
  C   C235      1.0  0.25480  0.42133  0.43549  1.0000
  N   N79       1.0  0.27641  0.43390  0.40067  1.0000
  C   C236      1.0  0.28768  0.42348  0.36507  1.0000
  N   N80       1.0  0.27653  0.40001  0.36015  1.0000
  C   C237      1.0  0.25509  0.38681  0.39564  1.0000
  N   N81       1.0  0.24503  0.39808  0.43217  1.0000
  C   C238      1.0  0.17425  0.75519  0.43512  1.0000
  N   N82       1.0  0.16529  0.73355  0.40072  1.0000
  C   C239      1.0  0.14369  0.72221  0.36431  1.0000
  N   N83       1.0  0.13140  0.73338  0.35791  1.0000
  C   C240      1.0  0.13959  0.75487  0.39279  1.0000
  N   N84       1.0  0.16079  0.76495  0.43046  1.0000
  C   C241      1.0  0.14120  0.30863  0.28870  1.0000
  N   N85       1.0  0.12904  0.28559  0.30517  1.0000
  C   C242      1.0  0.13956  0.27286  0.31816  1.0000
  N   N86       1.0  0.16306  0.28430  0.32209  1.0000
  C   C243      1.0  0.17595  0.30724  0.30437  1.0000
  N   N87       1.0  0.16449  0.31893  0.29313  1.0000
  C   C244      1.0  0.70121  0.83452  0.28863  1.0000
  N   N88       1.0  0.72423  0.84536  0.30527  1.0000
  C   C245      1.0  0.73692  0.86860  0.31855  1.0000
  N   N89       1.0  0.72545  0.88063  0.32267  1.0000
  C   C246      1.0  0.70250  0.87053  0.30493  1.0000
  N   N90       1.0  0.69080  0.84740  0.29317  1.0000
  C   C247      1.0  0.17536  0.86876  0.28819  1.0000
  N   N91       1.0  0.16450  0.88094  0.30482  1.0000
  C   C248      1.0  0.14124  0.87038  0.31746  1.0000
  N   N92       1.0  0.12916  0.84688  0.32088  1.0000
  C   C249      1.0  0.13926  0.83404  0.30298  1.0000
  N   N93       1.0  0.16242  0.84547  0.29179  1.0000
  C   C250      1.0  0.87046  0.69912  0.29175  1.0000
  N   N94       1.0  0.88269  0.72223  0.30682  1.0000
  C   C251      1.0  0.87216  0.73496  0.31934  1.0000
  N   N95       1.0  0.84866  0.72352  0.32394  1.0000
  C   C252      1.0  0.83577  0.70049  0.30786  1.0000
  N   N96       1.0  0.84720  0.68876  0.29678  1.0000
  C   C253      1.0  0.31058  0.17332  0.28867  1.0000
  N   N97       1.0  0.28754  0.16242  0.30513  1.0000
  C   C254      1.0  0.27481  0.13918  0.31809  1.0000
  N   N98       1.0  0.28626  0.12712  0.32200  1.0000
  C   C255      1.0  0.30920  0.13717  0.30430  1.0000
  N   N99       1.0  0.32089  0.16033  0.29308  1.0000
  C   C256      1.0  0.83636  0.13896  0.28679  1.0000
  N   N100      1.0  0.84720  0.12683  0.30435  1.0000
  C   C257      1.0  0.87043  0.13742  0.31793  1.0000
  N   N101      1.0  0.88241  0.16092  0.32161  1.0000
  C   C258      1.0  0.87236  0.17378  0.30300  1.0000
  N   N102      1.0  0.84922  0.16226  0.29081  1.0000
  C   C259      1.0  0.08726  0.50404  0.31566  1.0000
  N   N103      1.0  0.10183  0.49553  0.30573  1.0000
  C   C260      1.0  0.09366  0.47231  0.30267  1.0000
  N   N104      1.0  0.07049  0.45784  0.31095  1.0000
  C   C261      1.0  0.05561  0.46584  0.32219  1.0000
  N   N105      1.0  0.06442  0.48896  0.32350  1.0000
  C   C262      1.0  0.50578  0.58524  0.31547  1.0000
  N   N106      1.0  0.51431  0.60832  0.30561  1.0000
  C   C263      1.0  0.53754  0.62335  0.30279  1.0000
  N   N107      1.0  0.55199  0.61463  0.31132  1.0000
  C   C264      1.0  0.54396  0.59175  0.32255  1.0000
  N   N108      1.0  0.52083  0.57746  0.32354  1.0000
  C   C265      1.0  0.42459  0.92251  0.31613  1.0000
  N   N109      1.0  0.40150  0.90796  0.30650  1.0000
  C   C266      1.0  0.38648  0.91617  0.30376  1.0000
  N   N110      1.0  0.39521  0.93934  0.31206  1.0000
  C   C267      1.0  0.41810  0.95419  0.32301  1.0000
  N   N111      1.0  0.43239  0.94536  0.32395  1.0000
  C   C268      1.0  0.92461  0.50386  0.31506  1.0000
  N   N112      1.0  0.91005  0.51238  0.30505  1.0000
  C   C269      1.0  0.91824  0.53560  0.30212  1.0000
  N   N113      1.0  0.94140  0.55006  0.31061  1.0000
  C   C270      1.0  0.95626  0.54204  0.32191  1.0000
  N   N114      1.0  0.94744  0.51892  0.32304  1.0000
  C   C271      1.0  0.50598  0.42265  0.31526  1.0000
  N   N115      1.0  0.49746  0.39957  0.30541  1.0000
  C   C272      1.0  0.47424  0.38454  0.30257  1.0000
  N   N116      1.0  0.45977  0.39324  0.31099  1.0000
  C   C273      1.0  0.46779  0.41612  0.32218  1.0000
  N   N117      1.0  0.49091  0.43042  0.32325  1.0000
  C   C274      1.0  0.58723  0.08534  0.31598  1.0000
  N   N118      1.0  0.61032  0.09990  0.30632  1.0000
  C   C275      1.0  0.62534  0.09170  0.30356  1.0000
  N   N119      1.0  0.61662  0.06853  0.31191  1.0000
  C   C276      1.0  0.59373  0.05367  0.32295  1.0000
  N   N120      1.0  0.57944  0.06250  0.32390  1.0000
  C   C277      1.0  0.50320  0.08405  0.31867  1.0000
  N   N121      1.0  0.49430  0.09841  0.32018  1.0000
  C   C278      1.0  0.47103  0.08971  0.32402  1.0000
  N   N122      1.0  0.45683  0.06647  0.32925  1.0000
  C   C279      1.0  0.46538  0.05188  0.32863  1.0000
  N   N123      1.0  0.48853  0.06105  0.32342  1.0000
  C   C280      1.0  0.58869  0.50665  0.31817  1.0000
  N   N124      1.0  0.61196  0.51555  0.31968  1.0000
  C   C281      1.0  0.62652  0.53881  0.32385  1.0000
  N   N125      1.0  0.61748  0.55302  0.32926  1.0000
  C   C282      1.0  0.59435  0.54446  0.32854  1.0000
  N   N126      1.0  0.58037  0.52133  0.32312  1.0000
  C   C283      1.0  0.92582  0.42109  0.31804  1.0000
  N   N127      1.0  0.91143  0.39783  0.31972  1.0000
  C   C284      1.0  0.92010  0.38324  0.32370  1.0000
  N   N128      1.0  0.94334  0.39224  0.32877  1.0000
  C   C285      1.0  0.95795  0.41538  0.32799  1.0000
  N   N129      1.0  0.94881  0.42939  0.32269  1.0000
  C   C286      1.0  0.50863  0.92383  0.31843  1.0000
  N   N130      1.0  0.51753  0.90946  0.32006  1.0000
  C   C287      1.0  0.54079  0.91816  0.32419  1.0000
  N   N131      1.0  0.55499  0.94139  0.32950  1.0000
  C   C288      1.0  0.54644  0.95599  0.32873  1.0000
  N   N132      1.0  0.52331  0.94683  0.32328  1.0000
  C   C289      1.0  0.42305  0.50121  0.31838  1.0000
  N   N133      1.0  0.39979  0.49232  0.32001  1.0000
  C   C290      1.0  0.38522  0.46906  0.32390  1.0000
  N   N134      1.0  0.39425  0.45484  0.32902  1.0000
  C   C291      1.0  0.41738  0.46339  0.32827  1.0000
  N   N135      1.0  0.43137  0.48653  0.32304  1.0000
  C   C292      1.0  0.08607  0.58681  0.31885  1.0000
  N   N136      1.0  0.10044  0.61008  0.32004  1.0000
  C   C293      1.0  0.09175  0.62466  0.32325  1.0000
  N   N137      1.0  0.06852  0.61566  0.32825  1.0000
  C   C294      1.0  0.05392  0.59252  0.32807  1.0000
  N   N138      1.0  0.06307  0.57852  0.32334  1.0000
  C   C295      1.0  0.08922  0.13908  0.32301  1.0000
  N   N139      1.0  0.10011  0.16241  0.33222  1.0000
  C   C296      1.0  0.08846  0.17420  0.33469  1.0000
  N   N140      1.0  0.06506  0.16190  0.32848  1.0000
  C   C297      1.0  0.05325  0.13854  0.32028  1.0000
  N   N141      1.0  0.06578  0.12762  0.31705  1.0000
  C   C298      1.0  0.87072  0.95211  0.32294  1.0000
  N   N142      1.0  0.84740  0.93968  0.33224  1.0000
  C   C299      1.0  0.83560  0.91622  0.33464  1.0000
  N   N143      1.0  0.84791  0.90513  0.32828  1.0000
  C   C300      1.0  0.87127  0.91668  0.31998  1.0000
  N   N144      1.0  0.88218  0.94013  0.31682  1.0000
  C   C301      1.0  0.05771  0.92057  0.32237  1.0000
  N   N145      1.0  0.07015  0.90969  0.33158  1.0000
  C   C302      1.0  0.09360  0.92137  0.33398  1.0000
  N   N146      1.0  0.10469  0.94476  0.32774  1.0000
  C   C303      1.0  0.09312  0.95656  0.31959  1.0000
  N   N147      1.0  0.06967  0.94401  0.31640  1.0000
  C   C304      1.0  0.92255  0.86877  0.32237  1.0000
  N   N148      1.0  0.91165  0.84545  0.33163  1.0000
  C   C305      1.0  0.92330  0.83364  0.33401  1.0000
  N   N149      1.0  0.94669  0.84594  0.32774  1.0000
  C   C306      1.0  0.95851  0.86930  0.31951  1.0000
  N   N150      1.0  0.94598  0.88022  0.31634  1.0000
  C   C307      1.0  0.14103  0.05575  0.32271  1.0000
  N   N151      1.0  0.16435  0.06817  0.33196  1.0000
  C   C308      1.0  0.17615  0.09163  0.33449  1.0000
  N   N152      1.0  0.16385  0.10272  0.32828  1.0000
  C   C309      1.0  0.14049  0.09118  0.32004  1.0000
  N   N153      1.0  0.12957  0.06772  0.31676  1.0000
  C   C310      1.0  0.95406  0.08728  0.32313  1.0000
  N   N154      1.0  0.94162  0.09816  0.33242  1.0000
  C   C311      1.0  0.91816  0.08650  0.33493  1.0000
  N   N155      1.0  0.90708  0.06310  0.32866  1.0000
  C   C312      1.0  0.91864  0.05130  0.32039  1.0000
  N   N156      1.0  0.94209  0.06384  0.31713  1.0000
  C   C313      1.0  0.13711  0.35319  0.41442  1.0000
  C   C314      1.0  0.13584  0.33208  0.39618  1.0000
  H   H122      1.0  0.14022  0.32458  0.44670  1.0000
  H   H123      1.0  0.14175  0.35971  0.47812  1.0000
  C   C315      1.0  0.65679  0.78579  0.41426  1.0000
  C   C316      1.0  0.67791  0.80565  0.39613  1.0000
  H   H124      1.0  0.68543  0.81754  0.44663  1.0000
  H   H125      1.0  0.65027  0.78388  0.47797  1.0000
  C   C317      1.0  0.22408  0.87333  0.41485  1.0000
  C   C318      1.0  0.20421  0.87455  0.39628  1.0000
  H   H126      1.0  0.19233  0.87029  0.44673  1.0000
  H   H127      1.0  0.22600  0.86886  0.47877  1.0000
  C   C319      1.0  0.87491  0.65458  0.41561  1.0000
  C   C320      1.0  0.87623  0.67576  0.39848  1.0000
  H   H128      1.0  0.87172  0.68307  0.44932  1.0000
  H   H129      1.0  0.87025  0.64788  0.47906  1.0000
  C   C321      1.0  0.35515  0.22197  0.41438  1.0000
  C   C322      1.0  0.33404  0.20212  0.39614  1.0000
  H   H130      1.0  0.32653  0.19024  0.44666  1.0000
  H   H131      1.0  0.36167  0.22385  0.47807  1.0000
  C   C323      1.0  0.78774  0.13457  0.41346  1.0000
  C   C324      1.0  0.80755  0.13324  0.39484  1.0000
  H   H132      1.0  0.81947  0.13756  0.44514  1.0000
  H   H133      1.0  0.78589  0.13910  0.47737  1.0000
  C   C325      1.0  0.32293  0.12773  0.33065  1.0000
  C   C326      1.0  0.32980  0.12990  0.42187  1.0000
  C   C327      1.0  0.35083  0.13087  0.44584  1.0000
  C   C328      1.0  0.36502  0.12878  0.37998  1.0000
  N   N157      1.0  0.35703  0.13405  0.53420  1.0000
  C   C329      1.0  0.34436  0.13643  0.59982  1.0000
  C   C330      1.0  0.32397  0.13610  0.57586  1.0000
  N   N158      1.0  0.31760  0.13300  0.48826  1.0000
  H   H134      1.0  0.34970  0.13858  0.66513  1.0000
  H   H135      1.0  0.31410  0.13816  0.62305  1.0000
  C   C331      1.0  0.81254  0.68702  0.33382  1.0000
  C   C332      1.0  0.80779  0.67986  0.42470  1.0000
  C   C333      1.0  0.78771  0.65876  0.44780  1.0000
  C   C334      1.0  0.77153  0.64479  0.38128  1.0000
  N   N159      1.0  0.78461  0.65229  0.53585  1.0000
  C   C335      1.0  0.79959  0.66477  0.60195  1.0000
  C   C336      1.0  0.81967  0.68522  0.57881  1.0000
  N   N160      1.0  0.82303  0.69186  0.49152  1.0000
  H   H136      1.0  0.83156  0.69496  0.62639  1.0000
  C   C337      1.0  0.88176  0.19699  0.32870  1.0000
  C   C338      1.0  0.88035  0.20209  0.42007  1.0000
  C   C339      1.0  0.87951  0.22222  0.44401  1.0000
  C   C340      1.0  0.88113  0.23824  0.37788  1.0000
  N   N161      1.0  0.87685  0.22553  0.53258  1.0000
  C   C341      1.0  0.87490  0.21072  0.59850  1.0000
  C   C342      1.0  0.87514  0.19061  0.57467  1.0000
  N   N162      1.0  0.87769  0.18702  0.48683  1.0000
  H   H137      1.0  0.87308  0.21410  0.66394  1.0000
  H   H138      1.0  0.87336  0.17883  0.62212  1.0000
  C   C343      1.0  0.68880  0.88001  0.33127  1.0000
  C   C344      1.0  0.68199  0.87809  0.42245  1.0000
  C   C345      1.0  0.66098  0.87717  0.44617  1.0000
  C   C346      1.0  0.64679  0.87911  0.37998  1.0000
  N   N163      1.0  0.65478  0.87412  0.53452  1.0000
  C   C347      1.0  0.66747  0.87186  0.60038  1.0000
  C   C348      1.0  0.68786  0.87216  0.57667  1.0000
  N   N164      1.0  0.69422  0.87510  0.48905  1.0000
  H   H139      1.0  0.66213  0.86979  0.66568  1.0000
  H   H140      1.0  0.69774  0.87017  0.62406  1.0000
  C   C349      1.0  0.19912  0.32097  0.33075  1.0000
  C   C350      1.0  0.20382  0.32783  0.42198  1.0000
  C   C351      1.0  0.22387  0.34885  0.44597  1.0000
  C   C352      1.0  0.24016  0.36305  0.38013  1.0000
  N   N165      1.0  0.22688  0.35505  0.53432  1.0000
  C   C353      1.0  0.21183  0.34237  0.59993  1.0000
  C   C354      1.0  0.19178  0.32199  0.57595  1.0000
  N   N166      1.0  0.18851  0.31562  0.48835  1.0000
  H   H141      1.0  0.21502  0.34771  0.66525  1.0000
  H   H142      1.0  0.17984  0.31211  0.62313  1.0000
  C   C355      1.0  0.12969  0.81078  0.32821  1.0000
  C   C356      1.0  0.13134  0.80576  0.41954  1.0000
  C   C357      1.0  0.13227  0.78567  0.44328  1.0000
  C   C358      1.0  0.13060  0.76966  0.37696  1.0000
  N   N167      1.0  0.13506  0.78238  0.53176  1.0000
  C   C359      1.0  0.13705  0.79719  0.59777  1.0000
  C   C360      1.0  0.13674  0.81727  0.57412  1.0000
  N   N168      1.0  0.13406  0.82082  0.48639  1.0000
  H   H143      1.0  0.13894  0.79382  0.66315  1.0000
  H   H144      1.0  0.13853  0.82904  0.62164  1.0000
  C   C361      1.0  0.19803  0.43150  0.44951  1.0000
  C   C362      1.0  0.20108  0.41822  0.51649  1.0000
  C   C363      1.0  0.22169  0.41725  0.52122  1.0000
  C   C364      1.0  0.23980  0.42965  0.45915  1.0000
  N   N169      1.0  0.22315  0.40354  0.58548  1.0000
  C   C365      1.0  0.20612  0.39100  0.64503  1.0000
  C   C366      1.0  0.18563  0.39173  0.63957  1.0000
  N   N170      1.0  0.18391  0.40516  0.57564  1.0000
  C   C367      1.0  0.57849  0.76859  0.44915  1.0000
  C   C368      1.0  0.59180  0.78491  0.51611  1.0000
  C   C369      1.0  0.59272  0.80646  0.52094  1.0000
  C   C370      1.0  0.58027  0.81212  0.45894  1.0000
  N   N171      1.0  0.60646  0.82165  0.58511  1.0000
  C   C371      1.0  0.61905  0.81719  0.64448  1.0000
  C   C372      1.0  0.61836  0.79599  0.63894  1.0000
  N   N172      1.0  0.60491  0.78082  0.57510  1.0000
  C   C373      1.0  0.24111  0.81205  0.45022  1.0000
  C   C374      1.0  0.22460  0.80905  0.51642  1.0000
  C   C375      1.0  0.20305  0.78841  0.52084  1.0000
  C   C376      1.0  0.19753  0.77023  0.45931  1.0000
  N   N173      1.0  0.18770  0.78699  0.58421  1.0000
  C   C377      1.0  0.19200  0.80408  0.64319  1.0000
  C   C378      1.0  0.21321  0.82457  0.63813  1.0000
  N   N174      1.0  0.22854  0.82627  0.57508  1.0000
  C   C379      1.0  0.81364  0.57609  0.44742  1.0000
  C   C380      1.0  0.81060  0.58928  0.51488  1.0000
  C   C381      1.0  0.78999  0.59023  0.51992  1.0000
  C   C382      1.0  0.77189  0.57795  0.45764  1.0000
  N   N175      1.0  0.78851  0.60381  0.58470  1.0000
  C   C383      1.0  0.80553  0.61624  0.64445  1.0000
  C   C384      1.0  0.82603  0.61555  0.63866  1.0000
  N   N176      1.0  0.82777  0.60224  0.57425  1.0000
  C   C385      1.0  0.43347  0.23935  0.44936  1.0000
  C   C386      1.0  0.42018  0.22302  0.51635  1.0000
  C   C387      1.0  0.41922  0.20145  0.52109  1.0000
  C   C388      1.0  0.43162  0.19573  0.45901  1.0000
  N   N177      1.0  0.40551  0.18627  0.58536  1.0000
  C   C389      1.0  0.39298  0.19077  0.64492  1.0000
  C   C390      1.0  0.39370  0.21198  0.63945  1.0000
  N   N178      1.0  0.40713  0.22713  0.57551  1.0000
  C   C391      1.0  0.77074  0.19580  0.45015  1.0000
  C   C392      1.0  0.78720  0.19878  0.51643  1.0000
  C   C393      1.0  0.80873  0.21943  0.52098  1.0000
  C   C394      1.0  0.81426  0.23763  0.45949  1.0000
  N   N179      1.0  0.82408  0.22085  0.58438  1.0000
  C   C395      1.0  0.81979  0.20374  0.64324  1.0000
  C   C396      1.0  0.79860  0.18323  0.63802  1.0000
  N   N180      1.0  0.78328  0.18154  0.57494  1.0000
  C   C397      1.0  0.14148  0.46060  0.35844  1.0000
  C   C398      1.0  0.12841  0.47172  0.35169  1.0000
  H   H145      1.0  0.13278  0.48570  0.39193  1.0000
  H   H146      1.0  0.15473  0.46709  0.40376  1.0000
  C   C399      1.0  0.54932  0.68291  0.35844  1.0000
  C   C400      1.0  0.53816  0.65871  0.35172  1.0000
  H   H147      1.0  0.52422  0.64913  0.39216  1.0000
  H   H148      1.0  0.54287  0.68970  0.40382  1.0000
  C   C401      1.0  0.32690  0.86849  0.35990  1.0000
  C   C402      1.0  0.35109  0.88150  0.35312  1.0000
  H   H149      1.0  0.36068  0.87713  0.39351  1.0000
  H   H150      1.0  0.32011  0.85529  0.40547  1.0000
  C   C403      1.0  0.87038  0.54730  0.35721  1.0000
  C   C404      1.0  0.88344  0.53617  0.35060  1.0000
  H   H151      1.0  0.87908  0.52221  0.39098  1.0000
  H   H152      1.0  0.85713  0.54083  0.40253  1.0000
  C   C405      1.0  0.46255  0.32501  0.35830  1.0000
  C   C406      1.0  0.47367  0.34920  0.35156  1.0000
  H   H153      1.0  0.48766  0.35882  0.39177  1.0000
  H   H154      1.0  0.46905  0.31825  0.40358  1.0000
  C   C407      1.0  0.68491  0.13940  0.35962  1.0000
  C   C408      1.0  0.66072  0.12640  0.35282  1.0000
  H   H155      1.0  0.65113  0.13070  0.39351  1.0000
  H   H156      1.0  0.69171  0.15259  0.40522  1.0000
  C   C409      1.0  0.46139  0.10417  0.33483  1.0000
  C   C410      1.0  0.45470  0.10776  0.42084  1.0000
  C   C411      1.0  0.44328  0.12073  0.43067  1.0000
  C   C412      1.0  0.43816  0.13009  0.35453  1.0000
  N   N181      1.0  0.43699  0.12329  0.51512  1.0000
  C   C413      1.0  0.44115  0.11431  0.58963  1.0000
  C   C414      1.0  0.45243  0.10158  0.57984  1.0000
  N   N182      1.0  0.45871  0.09878  0.49629  1.0000
  H   H157      1.0  0.43607  0.11675  0.65137  1.0000
  H   H158      1.0  0.45584  0.09448  0.63425  1.0000
  C   C415      1.0  0.65062  0.54847  0.33474  1.0000
  C   C416      1.0  0.66097  0.55578  0.42038  1.0000
  C   C417      1.0  0.68536  0.56721  0.43008  1.0000
  C   C418      1.0  0.69978  0.57173  0.35413  1.0000
  N   N183      1.0  0.69427  0.57401  0.51418  1.0000
  C   C419      1.0  0.68119  0.57036  0.58849  1.0000
  C   C420      1.0  0.65717  0.55907  0.57885  1.0000
  N   N184      1.0  0.64803  0.55227  0.49563  1.0000
  H   H159      1.0  0.68875  0.57581  0.64999  1.0000
  H   H160      1.0  0.64671  0.55602  0.63311  1.0000
  C   C421      1.0  0.90561  0.35914  0.33444  1.0000
  C   C422      1.0  0.90202  0.34885  0.42042  1.0000
  C   C423      1.0  0.88902  0.32446  0.43021  1.0000
  C   C424      1.0  0.87963  0.30998  0.35405  1.0000
  N   N185      1.0  0.88648  0.31560  0.51463  1.0000
  C   C425      1.0  0.89550  0.32872  0.58915  1.0000
  C   C426      1.0  0.90825  0.35273  0.57940  1.0000
  N   N186      1.0  0.91103  0.36183  0.49588  1.0000
  H   H161      1.0  0.89307  0.32119  0.65086  1.0000
  H   H162      1.0  0.91537  0.36322  0.63382  1.0000
  C   C427      1.0  0.55045  0.90371  0.33506  1.0000
  C   C428      1.0  0.55773  0.90064  0.42073  1.0000
  C   C429      1.0  0.56914  0.88766  0.43044  1.0000
  C   C430      1.0  0.57368  0.87777  0.35451  1.0000
  N   N187      1.0  0.57593  0.88555  0.51455  1.0000
  C   C431      1.0  0.57229  0.89499  0.58886  1.0000
  C   C432      1.0  0.56101  0.90773  0.57919  1.0000
  N   N188      1.0  0.55422  0.91008  0.49596  1.0000
  H   H163      1.0  0.57773  0.89287  0.65036  1.0000
  H   H164      1.0  0.55797  0.91515  0.63345  1.0000
  C   C433      1.0  0.36112  0.45942  0.33481  1.0000
  C   C434      1.0  0.35084  0.45260  0.42078  1.0000
  C   C435      1.0  0.32646  0.44118  0.43066  1.0000
  C   C436      1.0  0.31197  0.43619  0.35459  1.0000
  N   N189      1.0  0.31761  0.43478  0.51505  1.0000
  C   C437      1.0  0.33075  0.43882  0.58948  1.0000
  C   C438      1.0  0.35476  0.45011  0.57965  1.0000
  N   N190      1.0  0.36384  0.45650  0.49614  1.0000
  H   H165      1.0  0.32323  0.43366  0.65120  1.0000
  H   H166      1.0  0.36526  0.45343  0.63400  1.0000
  C   C439      1.0  0.10624  0.64877  0.33376  1.0000
  C   C440      1.0  0.11076  0.65899  0.42011  1.0000
  C   C441      1.0  0.12373  0.68337  0.42998  1.0000
  C   C442      1.0  0.13216  0.69793  0.35359  1.0000
  N   N191      1.0  0.12707  0.69216  0.51482  1.0000
  C   C443      1.0  0.11888  0.67897  0.58963  1.0000
  C   C444      1.0  0.10616  0.65496  0.57978  1.0000
  N   N192      1.0  0.10257  0.64594  0.49587  1.0000
  H   H167      1.0  0.12187  0.68645  0.65164  1.0000
  H   H168      1.0  0.09962  0.64442  0.63441  1.0000
  C   C445      1.0  0.12630  0.24845  0.32960  1.0000
  C   C446      1.0  0.13209  0.23622  0.39235  1.0000
  C   C447      1.0  0.11939  0.21165  0.39608  1.0000
  C   C448      1.0  0.10057  0.19876  0.33742  1.0000
  N   N193      1.0  0.12540  0.20104  0.45979  1.0000
  C   C449      1.0  0.14273  0.21254  0.51942  1.0000
  C   C450      1.0  0.15517  0.23668  0.51595  1.0000
  N   N194      1.0  0.14939  0.24750  0.45299  1.0000
  H   H169      1.0  0.14648  0.20374  0.56606  1.0000
  H   H170      1.0  0.16827  0.24599  0.55998  1.0000
  C   C451      1.0  0.76134  0.87978  0.32991  1.0000
  C   C452      1.0  0.77359  0.89786  0.39243  1.0000
  C   C453      1.0  0.79816  0.90973  0.39606  1.0000
  C   C454      1.0  0.81104  0.90376  0.33751  1.0000
  N   N195      1.0  0.80879  0.92642  0.45955  1.0000
  C   C455      1.0  0.79729  0.93229  0.51906  1.0000
  C   C456      1.0  0.77316  0.92058  0.51570  1.0000
  N   N196      1.0  0.76232  0.90393  0.45294  1.0000
  H   H171      1.0  0.80611  0.94489  0.56552  1.0000
  H   H172      1.0  0.76385  0.92441  0.55963  1.0000
  C   C457      1.0  0.13009  0.88363  0.32879  1.0000
  C   C458      1.0  0.11233  0.87806  0.39256  1.0000
  C   C459      1.0  0.10044  0.89073  0.39632  1.0000
  C   C460      1.0  0.10608  0.90930  0.33661  1.0000
  N   N197      1.0  0.08409  0.88497  0.46105  1.0000
  C   C461      1.0  0.07858  0.86791  0.52168  1.0000
  C   C462      1.0  0.09030  0.85550  0.51819  1.0000
  N   N198      1.0  0.10662  0.86103  0.45419  1.0000
  H   H173      1.0  0.06624  0.86435  0.56908  1.0000
  H   H174      1.0  0.08675  0.84260  0.56295  1.0000
  C   C463      1.0  0.88541  0.75939  0.33004  1.0000
  C   C464      1.0  0.87973  0.77170  0.39284  1.0000
  C   C465      1.0  0.89244  0.79627  0.39615  1.0000
  C   C466      1.0  0.91118  0.80909  0.33705  1.0000
  N   N199      1.0  0.88654  0.80696  0.45991  1.0000
  C   C467      1.0  0.86930  0.79553  0.51996  1.0000
  C   C468      1.0  0.85684  0.77139  0.51693  1.0000
  N   N200      1.0  0.86252  0.76050  0.45391  1.0000
  H   H175      1.0  0.86563  0.80440  0.56663  1.0000
  H   H176      1.0  0.84381  0.76213  0.56128  1.0000
  C   C469      1.0  0.25040  0.12803  0.32950  1.0000
  C   C470      1.0  0.23816  0.10998  0.39215  1.0000
  C   C471      1.0  0.21359  0.09811  0.39585  1.0000
  C   C472      1.0  0.20071  0.10407  0.33725  1.0000
  N   N201      1.0  0.20297  0.08146  0.45947  1.0000
  C   C473      1.0  0.21447  0.07562  0.51904  1.0000
  C   C474      1.0  0.23860  0.08731  0.51560  1.0000
  N   N202      1.0  0.24944  0.10393  0.45272  1.0000
  H   H177      1.0  0.20566  0.06304  0.56561  1.0000
  H   H178      1.0  0.24792  0.08351  0.55958  1.0000
  C   C475      1.0  0.88162  0.12421  0.32962  1.0000
  C   C476      1.0  0.89967  0.13007  0.39233  1.0000
  C   C477      1.0  0.91158  0.11741  0.39616  1.0000
  C   C478      1.0  0.90568  0.09857  0.33761  1.0000
  N   N203      1.0  0.92823  0.12349  0.45983  1.0000
  C   C479      1.0  0.93402  0.14083  0.51933  1.0000
  C   C480      1.0  0.92229  0.15323  0.51576  1.0000
  N   N204      1.0  0.90566  0.14739  0.45282  1.0000
  H   H179      1.0  0.94660  0.14464  0.56594  1.0000
  H   H180      1.0  0.92605  0.16635  0.55968  1.0000
  C   C481      1.0  0.09491  0.56002  0.39524  1.0000
  C   C482      1.0  0.09514  0.53911  0.39447  1.0000
  H   H181      1.0  0.09456  0.53143  0.45469  1.0000
  H   H182      1.0  0.09409  0.56676  0.45600  1.0000
  C   C483      1.0  0.44971  0.53699  0.39460  1.0000
  C   C484      1.0  0.47060  0.55815  0.39390  1.0000
  H   H183      1.0  0.47821  0.56530  0.45414  1.0000
  H   H184      1.0  0.44291  0.52947  0.45536  1.0000
  C   C485      1.0  0.47279  0.91449  0.39466  1.0000
  C   C486      1.0  0.45162  0.91420  0.39413  1.0000
  H   H185      1.0  0.44439  0.91444  0.45447  1.0000
  H   H186      1.0  0.48022  0.91496  0.45538  1.0000
  C   C487      1.0  0.91647  0.44763  0.39400  1.0000
  C   C488      1.0  0.91618  0.46851  0.39333  1.0000
  H   H187      1.0  0.91647  0.47603  0.45360  1.0000
  H   H188      1.0  0.91693  0.44068  0.45475  1.0000
  C   C489      1.0  0.56198  0.47100  0.39453  1.0000
  C   C490      1.0  0.54108  0.44984  0.39385  1.0000
  H   H189      1.0  0.53343  0.44273  0.45411  1.0000
  H   H190      1.0  0.56874  0.47855  0.45528  1.0000
  C   C491      1.0  0.53898  0.09320  0.39492  1.0000
  C   C492      1.0  0.56015  0.09348  0.39428  1.0000
  H   H191      1.0  0.56729  0.09301  0.45456  1.0000
  H   H192      1.0  0.53147  0.09249  0.45568  1.0000
  C   C493      1.0  0.98216  0.42558  0.33605  1.0000
  C   C494      1.0  0.99457  0.44328  0.39963  1.0000
  C   C495      1.0  0.01904  0.45597  0.39807  1.0000
  C   C496      1.0  0.03149  0.45121  0.33270  1.0000
  N   N205      1.0  0.02994  0.47265  0.46152  1.0000
  C   C497      1.0  0.01881  0.47775  0.52545  1.0000
  C   C498      1.0  0.99467  0.46526  0.52680  1.0000
  N   N206      1.0  0.98358  0.44862  0.46422  1.0000
  H   H193      1.0  0.02788  0.49044  0.57135  1.0000
  H   H194      1.0  0.98557  0.46853  0.57375  1.0000
  C   C499      1.0  0.58414  0.55848  0.33665  1.0000
  C   C500      1.0  0.56634  0.55309  0.39983  1.0000
  C   C501      1.0  0.55367  0.56490  0.39824  1.0000
  C   C502      1.0  0.55856  0.58222  0.33322  1.0000
  N   N207      1.0  0.53688  0.55903  0.46128  1.0000
  C   C503      1.0  0.53164  0.54268  0.52484  1.0000
  C   C504      1.0  0.54411  0.53101  0.52621  1.0000
  N   N208      1.0  0.56086  0.53665  0.46403  1.0000
  H   H195      1.0  0.51888  0.53900  0.57043  1.0000
  H   H196      1.0  0.54074  0.51855  0.57287  1.0000
  C   C505      1.0  0.45139  0.02766  0.33678  1.0000
  C   C506      1.0  0.45677  0.01525  0.40003  1.0000
  C   C507      1.0  0.44497  0.99078  0.39851  1.0000
  C   C508      1.0  0.42764  0.97833  0.33354  1.0000
  N   N209      1.0  0.45083  0.97987  0.46162  1.0000
  C   C509      1.0  0.46719  0.99101  0.52518  1.0000
  C   C510      1.0  0.47884  0.01514  0.52649  1.0000
  N   N210      1.0  0.47321  0.02624  0.46425  1.0000
  H   H197      1.0  0.47087  0.98194  0.57083  1.0000
  H   H198      1.0  0.49130  0.02425  0.57317  1.0000
  C   C511      1.0  0.02970  0.58230  0.33613  1.0000
  C   C512      1.0  0.01729  0.56454  0.39948  1.0000
  C   C513      1.0  0.99282  0.55184  0.39781  1.0000
  C   C514      1.0  0.98038  0.55667  0.33259  1.0000
  N   N211      1.0  0.98190  0.53509  0.46097  1.0000
  C   C515      1.0  0.99302  0.52991  0.52472  1.0000
  C   C516      1.0  0.01715  0.54242  0.52619  1.0000
  N   N212      1.0  0.02826  0.55913  0.46389  1.0000
  H   H199      1.0  0.98394  0.51717  0.57040  1.0000
  H   H200      1.0  0.02625  0.53909  0.57301  1.0000
  C   C517      1.0  0.42759  0.44937  0.33626  1.0000
  C   C518      1.0  0.44534  0.45470  0.39964  1.0000
  C   C519      1.0  0.45802  0.44290  0.39802  1.0000
  C   C520      1.0  0.45318  0.42563  0.33282  1.0000
  N   N213      1.0  0.47474  0.44870  0.46126  1.0000
  C   C521      1.0  0.47992  0.46500  0.52503  1.0000
  C   C522      1.0  0.46745  0.47666  0.52644  1.0000
  N   N214      1.0  0.45075  0.47108  0.46407  1.0000
  H   H201      1.0  0.49264  0.46864  0.57078  1.0000
  H   H202      1.0  0.47077  0.48907  0.57327  1.0000
  C   C523      1.0  0.56045  0.98021  0.33681  1.0000
  C   C524      1.0  0.55508  0.99262  0.40009  1.0000
  C   C525      1.0  0.56689  0.01709  0.39855  1.0000
  C   C526      1.0  0.58420  0.02954  0.33351  1.0000
  N   N215      1.0  0.56104  0.02801  0.46169  1.0000
  C   C527      1.0  0.54470  0.01688  0.52528  1.0000
  C   C528      1.0  0.53303  0.99274  0.52660  1.0000
  N   N216      1.0  0.53865  0.98164  0.46433  1.0000
  H   H203      1.0  0.54103  0.02595  0.57094  1.0000
  H   H204      1.0  0.52058  0.98365  0.57330  1.0000
  C   C529      1.0  0.12157  0.13416  0.37405  1.0000
  C   C530      1.0  0.13417  0.12248  0.37306  1.0000
  H   H205      1.0  0.14782  0.12793  0.41614  1.0000
  H   H206      1.0  0.12660  0.14764  0.41772  1.0000
  C   C531      1.0  0.87561  0.98937  0.37399  1.0000
  C   C532      1.0  0.88730  0.01365  0.37311  1.0000
  H   H207      1.0  0.88184  0.02185  0.41618  1.0000
  H   H208      1.0  0.86211  0.98091  0.41757  1.0000
  C   C533      1.0  0.02043  0.88817  0.37320  1.0000
  C   C534      1.0  0.99615  0.87557  0.37223  1.0000
  H   H209      1.0  0.98795  0.86188  0.41512  1.0000
  H   H210      1.0  0.02888  0.88309  0.41665  1.0000
  C   C535      1.0  0.89018  0.87366  0.37352  1.0000
  C   C536      1.0  0.87758  0.88534  0.37263  1.0000
  H   H211      1.0  0.86392  0.87987  0.41571  1.0000
  H   H212      1.0  0.88514  0.86015  0.41704  1.0000
  C   C537      1.0  0.13615  0.01847  0.37345  1.0000
  C   C538      1.0  0.12446  0.99418  0.37243  1.0000
  H   H213      1.0  0.12995  0.98598  0.41533  1.0000
  H   H214      1.0  0.14967  0.02691  0.41696  1.0000
  C   C539      1.0  0.99133  0.11968  0.37391  1.0000
  C   C540      1.0  0.01561  0.13228  0.37296  1.0000
  H   H215      1.0  0.02381  0.14596  0.41591  1.0000
  H   H216      1.0  0.98288  0.12475  0.41742  1.0000
