data_image0
_chemical_formula_structural       C11HNO2CHC3HNO2CHC3HNO2CHC3HNO2CHC3HNO2CHC3HNO2CHC3HNO2CHC3HNO2CHC3HNO2CHC3HNO2CHC3HNO2CHC3HNO2CHC3HNO2CHC3HNO2CHC3HNO2CHC3HNO2CHC3HNO2CHC3HNO2CHC3HNO2CHC3HNO2CHC3HNO2CHC3HNO2CHC3HNO2CHC3HNO2CHNCNCN5CNCN4CNCNCN4CNCNCN4CNCNCN4CNCNCN5CNCN5CNCN5CNCN5CNCN4CNCNCN4CNCNCN4CNCNCN4CNCNCN5CNCN5CNCN4C3HNO2CHC3HNO2CHC3HNO2CHC3HNO2CHC3HNO2CHC3HNO2CHC3HNO2CHC3HNO2CHC3HNO2CHC3HNO2CHC3HNO2CHC3HNO2CHC3HNO2CHC3HNO2CHC3HNO2CHC3HNO2CHC3HNO2CHC3HNO2CHC3HNO2CHC3HNO2CHC3HNO2CHC3HNO2CHC3HNO2CHC3HNO2CH
_chemical_formula_sum              "C240 H96 N144 O96"
_cell_length_a       82.6709
_cell_length_b       42.6233
_cell_length_c       14.5889
_cell_angle_alpha    90
_cell_angle_beta     90
_cell_angle_gamma    90

_space_group_name_H-M_alt    "P 1"
_space_group_IT_number       1

loop_
  _space_group_symop_operation_xyz
  'x, y, z'

loop_
  _atom_site_type_symbol
  _atom_site_label
  _atom_site_symmetry_multiplicity
  _atom_site_fract_x
  _atom_site_fract_y
  _atom_site_fract_z
  _atom_site_occupancy
  C   C1        1.0  0.46376  0.37614  0.36203  1.0000
  C   C2        1.0  0.56440  0.65219  0.35918  1.0000
  C   C3        1.0  0.21185  0.81625  0.35906  1.0000
  C   C4        1.0  0.81627  0.21218  0.36008  1.0000
  C   C5        1.0  0.08098  0.40599  0.36176  1.0000
  C   C6        1.0  0.94739  0.62215  0.36541  1.0000
  C   C7        1.0  0.30277  0.97764  0.36452  1.0000
  C   C8        1.0  0.72528  0.05085  0.36379  1.0000
  C   C9        1.0  0.52456  0.54104  0.36042  1.0000
  C   C10       1.0  0.52224  0.52066  0.28414  1.0000
  C   C11       1.0  0.51183  0.49421  0.29156  1.0000
  H   H1        1.0  0.51018  0.48017  0.23540  1.0000
  N   N1        1.0  0.53013  0.52751  0.20022  1.0000
  O   O1        1.0  0.52012  0.53261  0.13713  1.0000
  O   O2        1.0  0.53935  0.50560  0.17604  1.0000
  C   C12       1.0  0.53575  0.56581  0.35525  1.0000
  H   H2        1.0  0.54712  0.56067  0.33887  1.0000
  C   C13       1.0  0.02473  0.98717  0.34970  1.0000
  C   C14       1.0  0.02254  0.00785  0.27500  1.0000
  C   C15       1.0  0.01203  0.03422  0.27990  1.0000
  H   H3        1.0  0.02853  0.00356  0.21486  1.0000
  N   N2        1.0  0.00967  0.05374  0.20244  1.0000
  O   O3        1.0  0.02270  0.06609  0.17663  1.0000
  O   O4        1.0  0.00367  0.03871  0.13660  1.0000
  C   C16       1.0  0.03570  0.96221  0.34362  1.0000
  H   H4        1.0  0.04667  0.96657  0.31881  1.0000
  C   C17       1.0  0.42167  0.34938  0.35244  1.0000
  C   C18       1.0  0.41249  0.34362  0.27251  1.0000
  C   C19       1.0  0.39607  0.33385  0.27657  1.0000
  H   H5        1.0  0.41807  0.34450  0.20990  1.0000
  N   N3        1.0  0.38749  0.32647  0.19523  1.0000
  O   O5        1.0  0.39410  0.30443  0.15192  1.0000
  O   O6        1.0  0.38646  0.34990  0.14328  1.0000
  C   C20       1.0  0.43850  0.35020  0.34687  1.0000
  H   H6        1.0  0.44376  0.33030  0.32723  1.0000
  C   C21       1.0  0.60651  0.67900  0.35000  1.0000
  C   C22       1.0  0.61558  0.68479  0.26971  1.0000
  C   C23       1.0  0.63201  0.69455  0.27310  1.0000
  H   H7        1.0  0.60991  0.68390  0.20735  1.0000
  N   N4        1.0  0.64049  0.70194  0.19147  1.0000
  O   O7        1.0  0.63383  0.72398  0.14843  1.0000
  O   O8        1.0  0.64146  0.67851  0.13945  1.0000
  C   C24       1.0  0.58967  0.67833  0.34554  1.0000
  H   H8        1.0  0.58439  0.69863  0.32991  1.0000
  C   C25       1.0  0.13978  0.82962  0.35993  1.0000
  C   C26       1.0  0.13073  0.83580  0.27885  1.0000
  C   C27       1.0  0.11434  0.84572  0.28498  1.0000
  H   H9        1.0  0.10777  0.84800  0.22588  1.0000
  N   N5        1.0  0.13805  0.83047  0.19232  1.0000
  O   O9        1.0  0.13840  0.85511  0.14508  1.0000
  O   O10       1.0  0.13079  0.80952  0.14780  1.0000
  C   C28       1.0  0.15433  0.81292  0.35436  1.0000
  H   H10       1.0  0.15342  0.79019  0.33971  1.0000
  C   C29       1.0  0.88837  0.19873  0.36408  1.0000
  C   C30       1.0  0.89726  0.19225  0.28267  1.0000
  C   C31       1.0  0.91366  0.18233  0.28814  1.0000
  H   H11       1.0  0.92014  0.17987  0.22874  1.0000
  N   N6        1.0  0.88981  0.19737  0.19642  1.0000
  O   O11       1.0  0.88936  0.17260  0.14978  1.0000
  O   O12       1.0  0.89701  0.21818  0.15102  1.0000
  C   C32       1.0  0.87384  0.21553  0.35898  1.0000
  H   H12       1.0  0.87482  0.23844  0.34714  1.0000
  C   C33       1.0  0.53214  0.22550  0.35511  1.0000
  C   C34       1.0  0.52506  0.24012  0.27714  1.0000
  C   C35       1.0  0.51832  0.27063  0.28491  1.0000
  H   H13       1.0  0.51338  0.28093  0.22801  1.0000
  N   N7        1.0  0.52490  0.22406  0.19200  1.0000
  O   O13       1.0  0.53266  0.23881  0.13175  1.0000
  O   O14       1.0  0.51072  0.21960  0.16377  1.0000
  C   C36       1.0  0.53712  0.19429  0.34995  1.0000
  H   H14       1.0  0.52873  0.17855  0.33335  1.0000
  C   C37       1.0  0.49593  0.80288  0.35508  1.0000
  C   C38       1.0  0.50367  0.78873  0.27837  1.0000
  C   C39       1.0  0.51041  0.75823  0.28650  1.0000
  H   H15       1.0  0.51582  0.74828  0.23046  1.0000
  N   N8        1.0  0.50446  0.80523  0.19407  1.0000
  O   O15       1.0  0.49721  0.79073  0.13132  1.0000
  O   O16       1.0  0.51884  0.80993  0.16963  1.0000
  C   C40       1.0  0.49094  0.83410  0.35003  1.0000
  H   H16       1.0  0.49938  0.84994  0.33505  1.0000
  C   C41       1.0  0.00979  0.78703  0.35382  1.0000
  C   C42       1.0  0.00272  0.77226  0.27699  1.0000
  C   C43       1.0  0.99608  0.74160  0.28238  1.0000
  H   H17       1.0  0.00265  0.78362  0.21514  1.0000
  N   N9        1.0  0.98985  0.72660  0.20319  1.0000
  O   O17       1.0  0.97831  0.74179  0.16898  1.0000
  O   O18       1.0  0.00059  0.72303  0.14316  1.0000
  C   C44       1.0  0.01589  0.81736  0.34689  1.0000
  H   H18       1.0  0.00886  0.83388  0.31980  1.0000
  C   C45       1.0  0.01847  0.24124  0.35349  1.0000
  C   C46       1.0  0.02631  0.25543  0.27814  1.0000
  C   C47       1.0  0.03296  0.28606  0.28379  1.0000
  H   H19       1.0  0.02691  0.24368  0.21702  1.0000
  N   N10       1.0  0.03997  0.30046  0.20573  1.0000
  O   O19       1.0  0.05177  0.28493  0.17595  1.0000
  O   O20       1.0  0.02981  0.30370  0.14237  1.0000
  C   C48       1.0  0.01234  0.21092  0.34627  1.0000
  H   H20       1.0  0.01946  0.19430  0.32056  1.0000
  C   C49       1.0  0.32143  0.11381  0.36160  1.0000
  C   C50       1.0  0.32505  0.13346  0.28527  1.0000
  C   C51       1.0  0.32379  0.16664  0.29309  1.0000
  H   H21       1.0  0.32626  0.18021  0.23692  1.0000
  N   N11       1.0  0.32974  0.11950  0.20113  1.0000
  O   O21       1.0  0.31990  0.12586  0.13813  1.0000
  O   O22       1.0  0.34363  0.12816  0.17699  1.0000
  C   C52       1.0  0.32446  0.08140  0.35674  1.0000
  H   H22       1.0  0.33567  0.07502  0.34033  1.0000
  C   C53       1.0  0.70668  0.91463  0.36057  1.0000
  C   C54       1.0  0.70298  0.89495  0.28439  1.0000
  C   C55       1.0  0.70427  0.86177  0.29222  1.0000
  H   H23       1.0  0.70174  0.84818  0.23616  1.0000
  N   N12       1.0  0.69820  0.90888  0.20040  1.0000
  O   O23       1.0  0.70796  0.90252  0.13706  1.0000
  O   O24       1.0  0.68428  0.90019  0.17678  1.0000
  C   C56       1.0  0.70364  0.94704  0.35568  1.0000
  H   H24       1.0  0.69244  0.95340  0.33909  1.0000
  C   C57       1.0  0.20917  0.68131  0.34743  1.0000
  C   C58       1.0  0.21289  0.66154  0.27251  1.0000
  C   C59       1.0  0.21152  0.62832  0.27786  1.0000
  H   H25       1.0  0.21642  0.67141  0.21173  1.0000
  N   N13       1.0  0.21448  0.60937  0.19986  1.0000
  O   O25       1.0  0.22869  0.61268  0.17098  1.0000
  O   O26       1.0  0.20480  0.61564  0.13599  1.0000
  C   C60       1.0  0.21128  0.71387  0.34084  1.0000
  H   H26       1.0  0.22162  0.72176  0.31473  1.0000
  C   C61       1.0  0.81903  0.34713  0.34848  1.0000
  C   C62       1.0  0.81527  0.36693  0.27366  1.0000
  C   C63       1.0  0.81667  0.40015  0.27900  1.0000
  H   H27       1.0  0.81172  0.35707  0.21291  1.0000
  N   N14       1.0  0.81367  0.41910  0.20106  1.0000
  O   O27       1.0  0.79944  0.41582  0.17242  1.0000
  O   O28       1.0  0.82331  0.41281  0.13701  1.0000
  C   C64       1.0  0.81692  0.31457  0.34184  1.0000
  H   H28       1.0  0.80661  0.30669  0.31535  1.0000
  C   C65       1.0  0.28545  0.37850  0.35783  1.0000
  C   C66       1.0  0.27951  0.39576  0.28121  1.0000
  C   C67       1.0  0.26513  0.41396  0.28886  1.0000
  H   H29       1.0  0.26094  0.42561  0.23228  1.0000
  N   N15       1.0  0.28791  0.39398  0.19667  1.0000
  O   O29       1.0  0.27922  0.38222  0.13488  1.0000
  O   O30       1.0  0.29270  0.42050  0.17072  1.0000
  C   C68       1.0  0.30054  0.36331  0.35295  1.0000
  H   H30       1.0  0.31003  0.37650  0.33655  1.0000
  C   C69       1.0  0.74282  0.64996  0.35736  1.0000
  C   C70       1.0  0.74877  0.63254  0.28107  1.0000
  C   C71       1.0  0.76315  0.61437  0.28905  1.0000
  H   H31       1.0  0.76734  0.60259  0.23271  1.0000
  N   N16       1.0  0.74036  0.63410  0.19651  1.0000
  O   O31       1.0  0.74904  0.64573  0.13447  1.0000
  O   O32       1.0  0.73558  0.60751  0.17109  1.0000
  C   C72       1.0  0.72772  0.66513  0.35216  1.0000
  H   H32       1.0  0.71825  0.65193  0.33548  1.0000
  C   C73       1.0  0.27187  0.91580  0.35146  1.0000
  C   C74       1.0  0.26598  0.89820  0.27637  1.0000
  C   C75       1.0  0.25154  0.88013  0.28158  1.0000
  H   H33       1.0  0.27220  0.89868  0.21569  1.0000
  N   N17       1.0  0.24566  0.86396  0.20355  1.0000
  O   O33       1.0  0.25570  0.84405  0.17521  1.0000
  O   O34       1.0  0.24243  0.88259  0.13934  1.0000
  C   C76       1.0  0.28680  0.93129  0.34555  1.0000
  H   H34       1.0  0.29605  0.91900  0.32074  1.0000
  C   C77       1.0  0.75619  0.11271  0.35134  1.0000
  C   C78       1.0  0.76209  0.13044  0.27652  1.0000
  C   C79       1.0  0.77653  0.14849  0.28201  1.0000
  H   H35       1.0  0.75588  0.13005  0.21581  1.0000
  N   N18       1.0  0.78242  0.16478  0.20422  1.0000
  O   O35       1.0  0.77239  0.18475  0.17614  1.0000
  O   O36       1.0  0.78565  0.14625  0.13976  1.0000
  C   C80       1.0  0.74127  0.09721  0.34509  1.0000
  H   H36       1.0  0.73204  0.10948  0.32001  1.0000
  C   C81       1.0  0.15391  0.46126  0.35846  1.0000
  C   C82       1.0  0.14418  0.45389  0.28088  1.0000
  C   C83       1.0  0.12818  0.44245  0.29325  1.0000
  H   H37       1.0  0.12107  0.43891  0.23673  1.0000
  N   N19       1.0  0.15044  0.45916  0.19169  1.0000
  O   O37       1.0  0.15094  0.43422  0.14590  1.0000
  O   O38       1.0  0.14222  0.47906  0.14843  1.0000
  C   C84       1.0  0.16822  0.47822  0.34713  1.0000
  H   H38       1.0  0.16723  0.49967  0.32075  1.0000
  C   C85       1.0  0.87441  0.56709  0.36110  1.0000
  C   C86       1.0  0.88412  0.57507  0.28396  1.0000
  C   C87       1.0  0.90012  0.58639  0.29699  1.0000
  H   H39       1.0  0.90721  0.59043  0.24066  1.0000
  N   N20       1.0  0.87782  0.57057  0.19449  1.0000
  O   O39       1.0  0.87731  0.59591  0.15057  1.0000
  O   O40       1.0  0.88602  0.55105  0.14966  1.0000
  C   C88       1.0  0.86008  0.55026  0.34871  1.0000
  H   H40       1.0  0.86105  0.52896  0.32130  1.0000
  C   C89       1.0  0.40675  0.93870  0.34183  1.0000
  C   C90       1.0  0.39691  0.94582  0.26540  1.0000
  C   C91       1.0  0.38085  0.95700  0.27530  1.0000
  H   H41       1.0  0.40173  0.94446  0.20084  1.0000
  N   N21       1.0  0.37167  0.96566  0.19722  1.0000
  O   O41       1.0  0.36957  0.94269  0.14450  1.0000
  O   O42       1.0  0.37836  0.98737  0.15294  1.0000
  C   C92       1.0  0.42337  0.93447  0.33058  1.0000
  H   H42       1.0  0.42849  0.94614  0.27901  1.0000
  C   C93       1.0  0.62131  0.08966  0.33764  1.0000
  C   C94       1.0  0.63125  0.08244  0.26168  1.0000
  C   C95       1.0  0.64729  0.07121  0.27240  1.0000
  H   H43       1.0  0.62652  0.08375  0.19690  1.0000
  N   N22       1.0  0.65657  0.06247  0.19478  1.0000
  O   O43       1.0  0.65875  0.08539  0.14197  1.0000
  O   O44       1.0  0.64992  0.04073  0.15040  1.0000
  C   C96       1.0  0.60476  0.09431  0.32529  1.0000
  H   H44       1.0  0.59962  0.08270  0.27360  1.0000
  C   C97       1.0  0.00584  0.54345  0.36148  1.0000
  C   C98       1.0  0.01390  0.53096  0.28448  1.0000
  C   C99       1.0  0.02209  0.50182  0.28883  1.0000
  H   H45       1.0  0.01366  0.54290  0.22357  1.0000
  N   N23       1.0  0.02965  0.48912  0.20985  1.0000
  O   O45       1.0  0.04052  0.50697  0.17980  1.0000
  O   O46       1.0  0.01958  0.48410  0.14702  1.0000
  C   C100      1.0  0.99829  0.57233  0.35560  1.0000
  H   H46       1.0  0.00465  0.59048  0.33228  1.0000
  C   C101      1.0  0.50566  0.98510  0.35032  1.0000
  C   C102      1.0  0.51359  0.99758  0.27194  1.0000
  C   C103      1.0  0.52185  0.02661  0.27870  1.0000
  H   H47       1.0  0.52740  0.03560  0.22167  1.0000
  N   N24       1.0  0.51291  0.98114  0.18752  1.0000
  O   O47       1.0  0.50599  0.99710  0.12660  1.0000
  O   O48       1.0  0.52678  0.97380  0.15967  1.0000
  C   C104      1.0  0.49824  0.95593  0.34562  1.0000
  H   H48       1.0  0.50509  0.93726  0.33260  1.0000
  N   N25       1.0  0.47144  0.40455  0.36352  1.0000
  C   C105      1.0  0.48796  0.40686  0.36109  1.0000
  N   N26       1.0  0.49674  0.37986  0.35754  1.0000
  C   C106      1.0  0.48955  0.35110  0.35711  1.0000
  N   N27       1.0  0.47315  0.34987  0.35876  1.0000
  N   N28       1.0  0.44751  0.37424  0.36478  1.0000
  N   N29       1.0  0.49760  0.32405  0.35353  1.0000
  N   N30       1.0  0.49629  0.43380  0.35885  1.0000
  N   N31       1.0  0.55669  0.62382  0.36284  1.0000
  C   C107      1.0  0.54016  0.62157  0.36390  1.0000
  N   N32       1.0  0.53141  0.64862  0.36232  1.0000
  C   C108      1.0  0.53861  0.67733  0.35887  1.0000
  N   N33       1.0  0.55501  0.67849  0.35706  1.0000
  N   N34       1.0  0.58066  0.65404  0.36046  1.0000
  N   N35       1.0  0.53056  0.70438  0.35547  1.0000
  N   N36       1.0  0.53174  0.59476  0.36708  1.0000
  C   C109      1.0  0.06440  0.87610  0.36103  1.0000
  N   N37       1.0  0.05671  0.90450  0.35957  1.0000
  C   C110      1.0  0.04019  0.90680  0.36190  1.0000
  N   N38       1.0  0.03142  0.87979  0.36537  1.0000
  C   C111      1.0  0.03861  0.85103  0.36581  1.0000
  N   N39       1.0  0.05501  0.84981  0.36423  1.0000
  N   N40       1.0  0.08065  0.87421  0.35841  1.0000
  N   N41       1.0  0.03057  0.82399  0.36933  1.0000
  N   N42       1.0  0.03187  0.93373  0.36415  1.0000
  C   C112      1.0  0.96376  0.15215  0.36386  1.0000
  N   N43       1.0  0.97147  0.12377  0.36020  1.0000
  C   C113      1.0  0.98801  0.12152  0.35915  1.0000
  N   N44       1.0  0.99676  0.14857  0.36073  1.0000
  C   C114      1.0  0.98956  0.17728  0.36421  1.0000
  N   N45       1.0  0.97316  0.17845  0.36600  1.0000
  N   N46       1.0  0.94751  0.15400  0.36256  1.0000
  N   N47       1.0  0.99761  0.20433  0.36755  1.0000
  N   N48       1.0  0.99642  0.09471  0.35593  1.0000
  C   C115      1.0  0.31632  0.31625  0.36401  1.0000
  N   N49       1.0  0.31510  0.28428  0.36503  1.0000
  C   C116      1.0  0.32842  0.26526  0.36249  1.0000
  N   N50       1.0  0.34321  0.27922  0.35914  1.0000
  C   C117      1.0  0.34512  0.31102  0.35917  1.0000
  N   N51       1.0  0.33149  0.32902  0.36107  1.0000
  N   N52       1.0  0.30274  0.33363  0.36649  1.0000
  N   N53       1.0  0.35968  0.32497  0.35632  1.0000
  N   N54       1.0  0.32798  0.23383  0.36016  1.0000
  C   C118      1.0  0.71189  0.71216  0.36290  1.0000
  N   N55       1.0  0.71310  0.74413  0.36387  1.0000
  C   C119      1.0  0.69978  0.76314  0.36103  1.0000
  N   N56       1.0  0.68500  0.74916  0.35739  1.0000
  C   C120      1.0  0.68309  0.71736  0.35742  1.0000
  N   N57       1.0  0.69673  0.69938  0.35971  1.0000
  N   N58       1.0  0.72548  0.69481  0.36568  1.0000
  N   N59       1.0  0.66853  0.70338  0.35454  1.0000
  N   N60       1.0  0.70022  0.79457  0.35872  1.0000
  N   N61       1.0  0.21308  0.78427  0.35802  1.0000
  C   C121      1.0  0.19976  0.76526  0.36054  1.0000
  N   N62       1.0  0.18497  0.77921  0.36393  1.0000
  C   C122      1.0  0.18306  0.81101  0.36393  1.0000
  N   N63       1.0  0.19669  0.82901  0.36202  1.0000
  N   N64       1.0  0.22543  0.83362  0.35657  1.0000
  N   N65       1.0  0.16850  0.82496  0.36676  1.0000
  N   N66       1.0  0.20021  0.73382  0.36288  1.0000
  N   N67       1.0  0.81506  0.24416  0.35911  1.0000
  C   C123      1.0  0.82839  0.26315  0.36192  1.0000
  N   N68       1.0  0.84317  0.24917  0.36560  1.0000
  C   C124      1.0  0.84508  0.21737  0.36557  1.0000
  N   N69       1.0  0.83144  0.19939  0.36327  1.0000
  N   N70       1.0  0.80268  0.19483  0.35733  1.0000
  N   N71       1.0  0.85963  0.20338  0.36846  1.0000
  N   N72       1.0  0.82796  0.29459  0.36428  1.0000
  N   N73       1.0  0.07441  0.37663  0.36002  1.0000
  C   C125      1.0  0.05807  0.37207  0.36216  1.0000
  N   N74       1.0  0.04834  0.39784  0.36478  1.0000
  C   C126      1.0  0.05446  0.42744  0.36614  1.0000
  N   N75       1.0  0.07075  0.43105  0.36419  1.0000
  N   N76       1.0  0.09703  0.40997  0.36101  1.0000
  N   N77       1.0  0.04531  0.45299  0.36589  1.0000
  N   N78       1.0  0.05199  0.34301  0.35999  1.0000
  N   N79       1.0  0.95394  0.65150  0.36090  1.0000
  C   C127      1.0  0.97028  0.65613  0.36204  1.0000
  N   N80       1.0  0.98003  0.63043  0.36632  1.0000
  C   C128      1.0  0.97394  0.60083  0.37002  1.0000
  N   N81       1.0  0.95765  0.59716  0.37001  1.0000
  N   N82       1.0  0.93134  0.61818  0.36500  1.0000
  N   N83       1.0  0.98316  0.57540  0.37407  1.0000
  N   N84       1.0  0.97634  0.68520  0.35894  1.0000
  C   C129      1.0  0.44722  0.90609  0.36125  1.0000
  N   N85       1.0  0.45378  0.87672  0.36289  1.0000
  C   C130      1.0  0.47012  0.87213  0.36086  1.0000
  N   N86       1.0  0.47986  0.89789  0.35842  1.0000
  C   C131      1.0  0.47375  0.92749  0.35719  1.0000
  N   N87       1.0  0.45747  0.93112  0.35901  1.0000
  N   N88       1.0  0.43117  0.91009  0.36186  1.0000
  N   N89       1.0  0.48290  0.95304  0.35746  1.0000
  N   N90       1.0  0.47619  0.84306  0.36298  1.0000
  C   C132      1.0  0.58079  0.12224  0.35770  1.0000
  N   N91       1.0  0.57424  0.15159  0.36211  1.0000
  C   C133      1.0  0.55790  0.15621  0.36090  1.0000
  N   N92       1.0  0.54815  0.13050  0.35668  1.0000
  C   C134      1.0  0.55425  0.10091  0.35309  1.0000
  N   N93       1.0  0.57054  0.09724  0.35315  1.0000
  N   N94       1.0  0.59684  0.11829  0.35817  1.0000
  N   N95       1.0  0.54503  0.07548  0.34909  1.0000
  N   N96       1.0  0.55183  0.18528  0.36388  1.0000
  C   C135      1.0  0.22540  0.47763  0.35857  1.0000
  N   N97       1.0  0.22633  0.50962  0.35422  1.0000
  C   C136      1.0  0.21291  0.52833  0.35608  1.0000
  N   N98       1.0  0.19821  0.51389  0.36080  1.0000
  C   C137      1.0  0.19664  0.48207  0.36410  1.0000
  N   N99       1.0  0.21037  0.46445  0.36364  1.0000
  N   N100      1.0  0.23901  0.46034  0.35575  1.0000
  N   N101      1.0  0.18230  0.46771  0.36956  1.0000
  N   N102      1.0  0.21444  0.55974  0.35297  1.0000
  C   C138      1.0  0.80290  0.55089  0.35930  1.0000
  N   N103      1.0  0.80197  0.51889  0.35483  1.0000
  C   C139      1.0  0.81538  0.50016  0.35699  1.0000
  N   N104      1.0  0.83008  0.51457  0.36217  1.0000
  C   C140      1.0  0.83165  0.54639  0.36560  1.0000
  N   N105      1.0  0.81793  0.56403  0.36486  1.0000
  N   N106      1.0  0.78930  0.56819  0.35619  1.0000
  N   N107      1.0  0.84601  0.56068  0.37170  1.0000
  N   N108      1.0  0.81383  0.46874  0.35385  1.0000
  N   N109      1.0  0.30184  0.00963  0.36890  1.0000
  C   C141      1.0  0.31527  0.02834  0.36701  1.0000
  N   N110      1.0  0.32996  0.01389  0.36221  1.0000
  C   C142      1.0  0.33152  0.98207  0.35885  1.0000
  N   N111      1.0  0.31779  0.96446  0.35933  1.0000
  N   N112      1.0  0.28915  0.96035  0.36731  1.0000
  N   N113      1.0  0.34587  0.96772  0.35326  1.0000
  N   N114      1.0  0.31374  0.05975  0.37012  1.0000
  N   N115      1.0  0.72621  0.01886  0.36824  1.0000
  C   C143      1.0  0.71280  0.00012  0.36606  1.0000
  N   N116      1.0  0.69811  0.01454  0.36088  1.0000
  C   C144      1.0  0.69653  0.04636  0.35746  1.0000
  N   N117      1.0  0.71025  0.06400  0.35821  1.0000
  N   N118      1.0  0.73889  0.06815  0.36688  1.0000
  N   N119      1.0  0.68218  0.06066  0.35135  1.0000
  N   N120      1.0  0.71434  0.96871  0.36921  1.0000
  C   C145      1.0  0.50342  0.48723  0.37335  1.0000
  C   C146      1.0  0.50565  0.50787  0.44811  1.0000
  C   C147      1.0  0.51615  0.53424  0.44319  1.0000
  H   H49       1.0  0.49967  0.50357  0.50827  1.0000
  N   N121      1.0  0.51853  0.55374  0.52068  1.0000
  O   O49       1.0  0.50551  0.56607  0.54665  1.0000
  O   O50       1.0  0.52455  0.53868  0.58642  1.0000
  C   C148      1.0  0.49246  0.46227  0.37942  1.0000
  H   H50       1.0  0.48149  0.46663  0.40426  1.0000
  C   C149      1.0  0.00360  0.04099  0.36261  1.0000
  C   C150      1.0  0.00589  0.02058  0.43884  1.0000
  C   C151      1.0  0.01630  0.99412  0.43143  1.0000
  H   H51       1.0  0.01793  0.98005  0.48755  1.0000
  N   N122      1.0  0.99798  0.02739  0.52270  1.0000
  O   O51       1.0  0.00797  0.03247  0.58591  1.0000
  O   O52       1.0  0.98875  0.00547  0.54672  1.0000
  C   C152      1.0  0.99241  0.06576  0.36774  1.0000
  H   H52       1.0  0.98105  0.06063  0.38424  1.0000
  C   C153      1.0  0.38840  0.32963  0.36297  1.0000
  C   C154      1.0  0.39742  0.33603  0.44399  1.0000
  C   C155      1.0  0.41381  0.34593  0.43778  1.0000
  H   H53       1.0  0.42038  0.34841  0.49685  1.0000
  N   N123      1.0  0.39008  0.33091  0.53055  1.0000
  O   O53       1.0  0.38971  0.35566  0.57727  1.0000
  O   O54       1.0  0.39733  0.31007  0.57557  1.0000
  C   C156      1.0  0.37385  0.31293  0.36859  1.0000
  H   H54       1.0  0.37477  0.29019  0.38312  1.0000
  C   C157      1.0  0.63979  0.69877  0.35918  1.0000
  C   C158      1.0  0.63088  0.69239  0.44059  1.0000
  C   C159      1.0  0.61448  0.68249  0.43502  1.0000
  H   H55       1.0  0.60798  0.68003  0.49437  1.0000
  N   N124      1.0  0.63831  0.69756  0.52686  1.0000
  O   O55       1.0  0.63874  0.67282  0.57367  1.0000
  O   O56       1.0  0.63111  0.71841  0.57206  1.0000
  C   C160      1.0  0.65432  0.71554  0.36430  1.0000
  H   H56       1.0  0.65336  0.73843  0.37641  1.0000
  C   C161      1.0  0.10650  0.84937  0.37029  1.0000
  C   C162      1.0  0.11570  0.84375  0.45022  1.0000
  C   C163      1.0  0.13212  0.83404  0.44627  1.0000
  H   H57       1.0  0.11013  0.84482  0.51286  1.0000
  N   N125      1.0  0.14073  0.82686  0.52767  1.0000
  O   O57       1.0  0.13414  0.80490  0.57145  1.0000
  O   O58       1.0  0.14175  0.85040  0.57918  1.0000
  C   C164      1.0  0.08967  0.85013  0.37564  1.0000
  H   H58       1.0  0.08441  0.83014  0.39457  1.0000
  C   C165      1.0  0.92166  0.17895  0.37310  1.0000
  C   C166      1.0  0.91261  0.18483  0.45343  1.0000
  C   C167      1.0  0.89619  0.19461  0.45009  1.0000
  H   H59       1.0  0.91831  0.18406  0.51575  1.0000
  N   N126      1.0  0.88774  0.20212  0.53175  1.0000
  O   O59       1.0  0.89442  0.22421  0.57445  1.0000
  O   O60       1.0  0.88678  0.17877  0.58404  1.0000
  C   C168      1.0  0.93850  0.17829  0.37757  1.0000
  H   H60       1.0  0.94378  0.19858  0.39329  1.0000
  C   C169      1.0  0.51840  0.28712  0.36880  1.0000
  C   C170      1.0  0.52560  0.27247  0.44544  1.0000
  C   C171      1.0  0.53222  0.24180  0.44013  1.0000
  H   H61       1.0  0.52574  0.28391  0.50716  1.0000
  N   N127      1.0  0.53858  0.22692  0.51921  1.0000
  O   O61       1.0  0.55017  0.24217  0.55264  1.0000
  O   O62       1.0  0.52792  0.22345  0.57982  1.0000
  C   C172      1.0  0.51229  0.31745  0.37567  1.0000
  H   H62       1.0  0.51933  0.33398  0.40254  1.0000
  C   C173      1.0  0.50970  0.74128  0.36953  1.0000
  C   C174      1.0  0.50185  0.75547  0.44486  1.0000
  C   C175      1.0  0.49520  0.78611  0.43920  1.0000
  H   H63       1.0  0.50123  0.74370  0.50594  1.0000
  N   N128      1.0  0.48817  0.80049  0.51723  1.0000
  O   O63       1.0  0.47636  0.78496  0.54689  1.0000
  O   O64       1.0  0.49832  0.80371  0.58067  1.0000
  C   C176      1.0  0.51583  0.71097  0.37672  1.0000
  H   H64       1.0  0.50871  0.69436  0.40254  1.0000
  C   C177      1.0  0.99602  0.72543  0.36761  1.0000
  C   C178      1.0  0.00300  0.74016  0.44573  1.0000
  C   C179      1.0  0.00974  0.77066  0.43790  1.0000
  H   H65       1.0  0.01460  0.78105  0.49491  1.0000
  N   N129      1.0  0.00304  0.72421  0.53106  1.0000
  O   O65       1.0  0.99520  0.73905  0.59081  1.0000
  O   O66       1.0  0.01718  0.71979  0.55995  1.0000
  C   C180      1.0  0.99105  0.69423  0.37293  1.0000
  H   H66       1.0  0.99944  0.67850  0.38971  1.0000
  C   C181      1.0  0.03226  0.30283  0.36796  1.0000
  C   C182      1.0  0.02452  0.28866  0.44467  1.0000
  C   C183      1.0  0.01778  0.25817  0.43654  1.0000
  H   H67       1.0  0.01238  0.24821  0.49259  1.0000
  N   N130      1.0  0.02375  0.30515  0.52900  1.0000
  O   O67       1.0  0.03101  0.29063  0.59169  1.0000
  O   O68       1.0  0.00938  0.30985  0.55353  1.0000
  C   C184      1.0  0.03725  0.33405  0.37300  1.0000
  H   H68       1.0  0.02881  0.34989  0.38809  1.0000
  C   C185      1.0  0.31901  0.18132  0.37556  1.0000
  C   C186      1.0  0.31530  0.16155  0.45051  1.0000
  C   C187      1.0  0.31668  0.12833  0.44518  1.0000
  H   H69       1.0  0.31180  0.17143  0.51132  1.0000
  N   N131      1.0  0.31374  0.10939  0.52321  1.0000
  O   O69       1.0  0.29952  0.11269  0.55216  1.0000
  O   O70       1.0  0.32342  0.11567  0.58704  1.0000
  C   C188      1.0  0.31689  0.21387  0.38213  1.0000
  H   H70       1.0  0.30655  0.22176  0.40820  1.0000
  C   C189      1.0  0.70915  0.84711  0.37452  1.0000
  C   C190      1.0  0.71292  0.86691  0.44933  1.0000
  C   C191      1.0  0.71152  0.90012  0.44400  1.0000
  H   H71       1.0  0.71649  0.85704  0.51003  1.0000
  N   N132      1.0  0.71454  0.91908  0.52190  1.0000
  O   O71       1.0  0.72878  0.91581  0.55040  1.0000
  O   O72       1.0  0.70492  0.91279  0.58605  1.0000
  C   C192      1.0  0.71126  0.81455  0.38113  1.0000
  H   H72       1.0  0.72157  0.80667  0.40761  1.0000
  C   C193      1.0  0.20676  0.61380  0.36143  1.0000
  C   C194      1.0  0.20311  0.63346  0.43769  1.0000
  C   C195      1.0  0.20437  0.66664  0.42986  1.0000
  H   H73       1.0  0.20189  0.68022  0.48600  1.0000
  N   N133      1.0  0.19840  0.61951  0.52180  1.0000
  O   O73       1.0  0.20821  0.62589  0.58490  1.0000
  O   O74       1.0  0.18450  0.62817  0.54578  1.0000
  C   C196      1.0  0.20372  0.58140  0.36631  1.0000
  H   H74       1.0  0.19251  0.57503  0.38269  1.0000
  C   C197      1.0  0.82148  0.41466  0.36248  1.0000
  C   C198      1.0  0.82517  0.39498  0.43865  1.0000
  C   C199      1.0  0.82389  0.36180  0.43082  1.0000
  H   H75       1.0  0.82641  0.34821  0.48690  1.0000
  N   N134      1.0  0.82994  0.40891  0.52268  1.0000
  O   O75       1.0  0.82016  0.40254  0.58597  1.0000
  O   O76       1.0  0.84385  0.40023  0.54637  1.0000
  C   C200      1.0  0.82453  0.44706  0.36735  1.0000
  H   H76       1.0  0.83574  0.45341  0.38390  1.0000
  C   C201      1.0  0.25630  0.41580  0.37155  1.0000
  C   C202      1.0  0.26219  0.39819  0.44662  1.0000
  C   C203      1.0  0.27663  0.38013  0.44143  1.0000
  H   H77       1.0  0.25597  0.39867  0.50730  1.0000
  N   N135      1.0  0.28251  0.36395  0.51945  1.0000
  O   O77       1.0  0.27247  0.34402  0.54774  1.0000
  O   O78       1.0  0.28573  0.38257  0.58369  1.0000
  C   C204      1.0  0.24138  0.43128  0.37748  1.0000
  H   H78       1.0  0.23213  0.41898  0.40229  1.0000
  C   C205      1.0  0.77200  0.61275  0.37173  1.0000
  C   C206      1.0  0.76610  0.63052  0.44647  1.0000
  C   C207      1.0  0.75165  0.64855  0.44095  1.0000
  H   H79       1.0  0.77233  0.63019  0.50714  1.0000
  N   N136      1.0  0.74577  0.66491  0.51866  1.0000
  O   O79       1.0  0.75580  0.68491  0.54652  1.0000
  O   O80       1.0  0.74257  0.64643  0.58328  1.0000
  C   C208      1.0  0.78691  0.59725  0.37800  1.0000
  H   H80       1.0  0.79614  0.60951  0.40314  1.0000
  C   C209      1.0  0.24273  0.87849  0.36519  1.0000
  C   C210      1.0  0.24867  0.89575  0.44180  1.0000
  C   C211      1.0  0.26304  0.91397  0.43414  1.0000
  H   H81       1.0  0.26724  0.92561  0.49072  1.0000
  N   N137      1.0  0.24027  0.89398  0.52634  1.0000
  O   O81       1.0  0.24896  0.88223  0.58814  1.0000
  O   O82       1.0  0.23547  0.92050  0.55227  1.0000
  C   C212      1.0  0.22764  0.86330  0.37009  1.0000
  H   H82       1.0  0.21815  0.87650  0.38651  1.0000
  C   C213      1.0  0.78534  0.14999  0.36565  1.0000
  C   C214      1.0  0.77939  0.13260  0.44201  1.0000
  C   C215      1.0  0.76502  0.11440  0.43405  1.0000
  H   H83       1.0  0.76082  0.10267  0.49046  1.0000
  N   N138      1.0  0.78778  0.13424  0.52660  1.0000
  O   O83       1.0  0.77909  0.14589  0.58852  1.0000
  O   O84       1.0  0.79258  0.10768  0.55219  1.0000
  C   C216      1.0  0.80044  0.16515  0.37081  1.0000
  H   H84       1.0  0.80991  0.15194  0.38741  1.0000
  C   C217      1.0  0.12145  0.43851  0.38143  1.0000
  C   C218      1.0  0.13143  0.44502  0.45777  1.0000
  C   C219      1.0  0.14747  0.45632  0.44765  1.0000
  H   H85       1.0  0.12673  0.44318  0.52248  1.0000
  N   N139      1.0  0.15680  0.46435  0.52577  1.0000
  O   O85       1.0  0.15017  0.48568  0.57197  1.0000
  O   O86       1.0  0.15900  0.44096  0.57670  1.0000
  C   C220      1.0  0.10488  0.43411  0.39352  1.0000
  H   H86       1.0  0.09978  0.44538  0.44595  1.0000
  C   C221      1.0  0.90689  0.58959  0.38537  1.0000
  C   C222      1.0  0.89692  0.58245  0.46129  1.0000
  C   C223      1.0  0.88088  0.57127  0.45054  1.0000
  H   H87       1.0  0.90163  0.58382  0.52609  1.0000
  N   N140      1.0  0.87157  0.56262  0.52815  1.0000
  O   O87       1.0  0.86940  0.58558  0.58077  1.0000
  O   O88       1.0  0.87819  0.54090  0.57274  1.0000
  C   C224      1.0  0.92346  0.59412  0.39764  1.0000
  H   H88       1.0  0.92853  0.58271  0.44989  1.0000
  C   C225      1.0  0.37424  0.96124  0.36440  1.0000
  C   C226      1.0  0.38384  0.95329  0.44203  1.0000
  C   C227      1.0  0.39985  0.94193  0.42986  1.0000
  H   H89       1.0  0.40687  0.93802  0.48657  1.0000
  N   N141      1.0  0.37742  0.95789  0.53117  1.0000
  O   O89       1.0  0.37682  0.93259  0.57526  1.0000
  O   O90       1.0  0.38555  0.97744  0.57623  1.0000
  C   C228      1.0  0.35994  0.97818  0.37602  1.0000
  H   H90       1.0  0.36092  0.99957  0.40278  1.0000
  C   C229      1.0  0.65378  0.06709  0.36180  1.0000
  C   C230      1.0  0.64409  0.07514  0.43895  1.0000
  C   C231      1.0  0.62810  0.08653  0.42599  1.0000
  H   H91       1.0  0.62102  0.09059  0.48234  1.0000
  N   N142      1.0  0.65040  0.07066  0.52840  1.0000
  O   O91       1.0  0.65094  0.09601  0.57224  1.0000
  O   O92       1.0  0.64219  0.05118  0.57334  1.0000
  C   C232      1.0  0.66810  0.05023  0.37418  1.0000
  H   H92       1.0  0.66712  0.02891  0.40143  1.0000
  C   C233      1.0  0.02256  0.48506  0.37303  1.0000
  C   C234      1.0  0.01463  0.49755  0.45141  1.0000
  C   C235      1.0  0.00635  0.52658  0.44460  1.0000
  H   H93       1.0  0.00082  0.53558  0.50162  1.0000
  N   N143      1.0  0.01533  0.48115  0.53587  1.0000
  O   O93       1.0  0.02225  0.49713  0.59672  1.0000
  O   O94       1.0  0.00146  0.47380  0.56378  1.0000
  C   C236      1.0  0.02997  0.45589  0.37777  1.0000
  H   H94       1.0  0.02313  0.43722  0.39078  1.0000
  C   C237      1.0  0.52234  0.04353  0.36176  1.0000
  C   C238      1.0  0.51429  0.03104  0.43878  1.0000
  C   C239      1.0  0.50610  0.00190  0.43448  1.0000
  H   H95       1.0  0.51451  0.04301  0.49965  1.0000
  N   N144      1.0  0.49854  0.98922  0.51345  1.0000
  O   O95       1.0  0.48765  0.00707  0.54339  1.0000
  O   O96       1.0  0.50860  0.98423  0.57635  1.0000
  C   C240      1.0  0.52990  0.07240  0.36760  1.0000
  H   H96       1.0  0.52354  0.09056  0.39091  1.0000
