data_image0
_chemical_formula_structural       C3HOHC3HOHC3HOHC3HOH2NC2OCNC2ONHNC3ONC2OHNC2OCNC2ONHNC3ONC2OCH2COHNHCNH2COHCH2COHNHCNH2COHC3H2C3HC2HC3HC3H3CNC2O2HCNC2O2HCNC2O2HCNC2O2HC3NH2C3NC3H3C3NC2H2NC3O2HNC3O2HNC3O2HNC3O2HC3H2C3HC2HC3HC3H3CNC2O2HCNC2O2HCNC2O2HCNC2O2HC3NH2C3NC3H3C3NC2H2NC3O2HNC3O2HNC3O2HNC3O2HC3HC3H3C3HC3H3C3HC3H3CNC2O2HCNC2O2HCNC2O2HCNC2O2HCNC2O2HCNC2O2HC3NC3NH4C3NC3NH4C3NC3NH4NC3O2HNC3O2HNC3O2HNC3O2HNC3O2HNC3O2HC3HC3H3C3HC3H3C3HC3H3CNC2O2HCNC2O2HCNC2O2HCNC2O2HCNC2O2HCNC2O2HC3NC3NH4C3NC3NH4C3NC3NH4NC3O2HNC3O2HNC3O2HNC3O2HNC3O2HNC3O2H
_chemical_formula_sum              "C288 H144 O96 N72"
_cell_length_a       46.6106
_cell_length_b       46.6106
_cell_length_c       14.875
_cell_angle_alpha    90
_cell_angle_beta     90
_cell_angle_gamma    120

_space_group_name_H-M_alt    "P 1"
_space_group_IT_number       1

loop_
  _space_group_symop_operation_xyz
  'x, y, z'

loop_
  _atom_site_type_symbol
  _atom_site_label
  _atom_site_symmetry_multiplicity
  _atom_site_fract_x
  _atom_site_fract_y
  _atom_site_fract_z
  _atom_site_occupancy
  C   C1        1.0  0.02459  0.26333  0.34509  1.0000
  C   C2        1.0  0.07846  0.31699  0.32966  1.0000
  C   C3        1.0  0.04356  0.29876  0.33798  1.0000
  H   H1        1.0  0.03218  0.31252  0.33508  1.0000
  O   O1        1.0  0.07518  0.35319  0.14385  1.0000
  H   H2        1.0  0.05830  0.35011  0.17797  1.0000
  C   C4        1.0  0.04387  0.24720  0.35111  1.0000
  C   C5        1.0  0.07884  0.26396  0.34658  1.0000
  C   C6        1.0  0.09541  0.29875  0.33234  1.0000
  H   H3        1.0  0.03275  0.22230  0.36095  1.0000
  O   O2        1.0  0.08184  0.23754  0.54879  1.0000
  H   H4        1.0  0.06411  0.22146  0.52201  1.0000
  C   C7        1.0  0.02459  0.76333  0.34509  1.0000
  C   C8        1.0  0.07846  0.81699  0.32966  1.0000
  C   C9        1.0  0.04356  0.79876  0.33798  1.0000
  H   H5        1.0  0.03218  0.81252  0.33508  1.0000
  O   O3        1.0  0.07518  0.85320  0.14385  1.0000
  H   H6        1.0  0.05830  0.85011  0.17797  1.0000
  C   C10       1.0  0.04387  0.74720  0.35111  1.0000
  C   C11       1.0  0.07884  0.76396  0.34658  1.0000
  C   C12       1.0  0.09541  0.79875  0.33234  1.0000
  H   H7        1.0  0.03275  0.72230  0.36095  1.0000
  O   O4        1.0  0.08184  0.73754  0.54879  1.0000
  H   H8        1.0  0.06411  0.72146  0.52201  1.0000
  H   H9        1.0  0.13908  0.33461  0.28731  1.0000
  N   N1        1.0  0.11067  0.24495  0.26982  1.0000
  C   C13       1.0  0.13857  0.24260  0.25784  1.0000
  C   C14       1.0  0.14979  0.24350  0.17068  1.0000
  O   O5        1.0  0.14303  0.25742  0.11165  1.0000
  C   C15       1.0  0.09679  0.35241  0.33520  1.0000
  N   N2        1.0  0.14343  0.40054  0.27249  1.0000
  C   C16       1.0  0.11335  0.37253  0.25919  1.0000
  C   C17       1.0  0.10330  0.36163  0.17161  1.0000
  O   O6        1.0  0.12429  0.36900  0.11313  1.0000
  N   N3        1.0  0.12843  0.31425  0.32075  1.0000
  H   H10       1.0  0.14029  0.31302  0.37257  1.0000
  N   N4        1.0  0.14585  0.24996  0.41362  1.0000
  C   C18       1.0  0.11622  0.24878  0.42646  1.0000
  C   C19       1.0  0.09713  0.24681  0.34951  1.0000
  C   C20       1.0  0.10885  0.25537  0.51200  1.0000
  O   O7        1.0  0.13143  0.27296  0.56315  1.0000
  N   N5        1.0  0.11243  0.36474  0.41525  1.0000
  C   C21       1.0  0.14063  0.39448  0.42935  1.0000
  C   C22       1.0  0.15403  0.40181  0.51557  1.0000
  O   O8        1.0  0.14870  0.37923  0.56710  1.0000
  H   H11       1.0  0.13907  0.83461  0.28731  1.0000
  N   N6        1.0  0.11067  0.74495  0.26982  1.0000
  C   C23       1.0  0.13857  0.74260  0.25784  1.0000
  C   C24       1.0  0.14979  0.74350  0.17068  1.0000
  O   O9        1.0  0.14303  0.75742  0.11165  1.0000
  C   C25       1.0  0.09679  0.85240  0.33520  1.0000
  N   N7        1.0  0.14343  0.90053  0.27249  1.0000
  C   C26       1.0  0.11335  0.87253  0.25919  1.0000
  C   C27       1.0  0.10330  0.86163  0.17161  1.0000
  O   O10       1.0  0.12429  0.86899  0.11313  1.0000
  N   N8        1.0  0.12843  0.81425  0.32075  1.0000
  H   H12       1.0  0.14029  0.81302  0.37257  1.0000
  N   N9        1.0  0.14585  0.74996  0.41362  1.0000
  C   C28       1.0  0.11622  0.74878  0.42646  1.0000
  C   C29       1.0  0.09713  0.74681  0.34951  1.0000
  C   C30       1.0  0.10885  0.75537  0.51200  1.0000
  O   O11       1.0  0.13143  0.77296  0.56315  1.0000
  N   N10       1.0  0.11243  0.86474  0.41525  1.0000
  C   C31       1.0  0.14063  0.89448  0.42935  1.0000
  C   C32       1.0  0.15403  0.90181  0.51557  1.0000
  O   O12       1.0  0.14870  0.87923  0.56710  1.0000
  C   C33       1.0  0.19379  0.26324  0.33056  1.0000
  H   H13       1.0  0.19820  0.22138  0.33208  1.0000
  H   H14       1.0  0.17652  0.30660  0.29002  1.0000
  C   C34       1.0  0.15837  0.24610  0.33448  1.0000
  O   O13       1.0  0.15814  0.22368  0.14344  1.0000
  H   H15       1.0  0.16082  0.20966  0.17774  1.0000
  N   N11       1.0  0.19647  0.31580  0.32498  1.0000
  H   H16       1.0  0.19658  0.32753  0.37907  1.0000
  C   C35       1.0  0.19369  0.43200  0.35171  1.0000
  N   N12       1.0  0.19468  0.38218  0.33162  1.0000
  H   H17       1.0  0.17935  0.36990  0.37945  1.0000
  H   H18       1.0  0.19819  0.47826  0.36078  1.0000
  C   C36       1.0  0.15820  0.41372  0.35307  1.0000
  O   O14       1.0  0.16362  0.42900  0.55171  1.0000
  H   H19       1.0  0.16562  0.44679  0.52438  1.0000
  C   C37       1.0  0.19378  0.76324  0.33056  1.0000
  H   H20       1.0  0.19820  0.72138  0.33208  1.0000
  H   H21       1.0  0.17652  0.80660  0.29002  1.0000
  C   C38       1.0  0.15837  0.74610  0.33448  1.0000
  O   O15       1.0  0.15814  0.72368  0.14344  1.0000
  H   H22       1.0  0.16082  0.70966  0.17774  1.0000
  N   N13       1.0  0.19647  0.81580  0.32498  1.0000
  H   H23       1.0  0.19658  0.82753  0.37907  1.0000
  C   C39       1.0  0.19369  0.93200  0.35171  1.0000
  N   N14       1.0  0.19468  0.88218  0.33162  1.0000
  H   H24       1.0  0.17935  0.86990  0.37945  1.0000
  H   H25       1.0  0.19819  0.97825  0.36078  1.0000
  C   C40       1.0  0.15820  0.91372  0.35307  1.0000
  O   O16       1.0  0.16362  0.92900  0.55171  1.0000
  H   H26       1.0  0.16562  0.94679  0.52438  1.0000
  C   C41       1.0  0.48868  0.24515  0.34484  1.0000
  C   C42       1.0  0.46974  0.20971  0.33774  1.0000
  C   C43       1.0  0.43485  0.19144  0.32936  1.0000
  H   H27       1.0  0.48112  0.19595  0.33524  1.0000
  H   H28       1.0  0.37465  0.17450  0.28512  1.0000
  C   C44       1.0  0.26530  0.24495  0.34507  1.0000
  C   C45       1.0  0.30068  0.26132  0.33729  1.0000
  C   C46       1.0  0.31895  0.24459  0.33485  1.0000
  H   H29       1.0  0.31434  0.28637  0.33048  1.0000
  C   C47       1.0  0.24735  0.26289  0.34426  1.0000
  C   C48       1.0  0.21196  0.24649  0.33656  1.0000
  H   H30       1.0  0.33710  0.20151  0.30370  1.0000
  C   C49       1.0  0.26523  0.02219  0.34490  1.0000
  C   C50       1.0  0.24884  0.04120  0.33753  1.0000
  C   C51       1.0  0.26557  0.07610  0.32952  1.0000
  H   H31       1.0  0.22371  0.02983  0.33411  1.0000
  C   C52       1.0  0.24735  0.48626  0.34545  1.0000
  C   C53       1.0  0.24704  0.43225  0.33337  1.0000
  C   C54       1.0  0.26375  0.46725  0.33794  1.0000
  H   H32       1.0  0.28885  0.47866  0.33268  1.0000
  H   H33       1.0  0.20391  0.37094  0.29916  1.0000
  H   H34       1.0  0.30869  0.13735  0.28962  1.0000
  C   C55       1.0  0.26427  0.41405  0.33786  1.0000
  N   N15       1.0  0.26574  0.36765  0.27233  1.0000
  C   C56       1.0  0.26792  0.39783  0.26111  1.0000
  C   C57       1.0  0.26696  0.40737  0.17327  1.0000
  O   O17       1.0  0.24193  0.38968  0.13000  1.0000
  O   O18       1.0  0.28253  0.43664  0.14912  1.0000
  H   H35       1.0  0.30078  0.45211  0.17556  1.0000
  C   C58       1.0  0.35440  0.26191  0.33730  1.0000
  N   N16       1.0  0.40180  0.26309  0.26974  1.0000
  C   C59       1.0  0.37371  0.26523  0.25958  1.0000
  C   C60       1.0  0.36184  0.26412  0.17310  1.0000
  O   O19       1.0  0.36788  0.24971  0.11385  1.0000
  O   O20       1.0  0.35424  0.28451  0.14598  1.0000
  H   H36       1.0  0.35224  0.29894  0.18029  1.0000
  C   C61       1.0  0.24838  0.09433  0.33497  1.0000
  N   N17       1.0  0.24716  0.14125  0.27368  1.0000
  C   C62       1.0  0.24500  0.11118  0.25945  1.0000
  C   C63       1.0  0.24622  0.10163  0.17157  1.0000
  O   O21       1.0  0.25997  0.12279  0.11360  1.0000
  O   O22       1.0  0.22698  0.07349  0.14297  1.0000
  H   H37       1.0  0.21314  0.05642  0.17648  1.0000
  C   C64       1.0  0.41638  0.15604  0.33523  1.0000
  N   N18       1.0  0.36991  0.10804  0.27090  1.0000
  C   C65       1.0  0.40015  0.13589  0.25895  1.0000
  C   C66       1.0  0.40988  0.14585  0.17085  1.0000
  O   O23       1.0  0.39185  0.15205  0.12516  1.0000
  O   O24       1.0  0.43922  0.15982  0.14724  1.0000
  H   H38       1.0  0.45487  0.15774  0.17512  1.0000
  C   C67       1.0  0.41799  0.20976  0.33161  1.0000
  C   C68       1.0  0.43444  0.24454  0.34540  1.0000
  C   C69       1.0  0.46940  0.26130  0.35039  1.0000
  N   N19       1.0  0.38498  0.19426  0.32105  1.0000
  H   H39       1.0  0.37371  0.19345  0.37667  1.0000
  H   H40       1.0  0.48049  0.28620  0.36020  1.0000
  C   C70       1.0  0.30081  0.20951  0.34322  1.0000
  C   C71       1.0  0.26585  0.19131  0.35378  1.0000
  C   C72       1.0  0.24907  0.20955  0.35273  1.0000
  N   N20       1.0  0.31666  0.19218  0.33622  1.0000
  C   C73       1.0  0.26359  0.29832  0.35124  1.0000
  C   C74       1.0  0.24689  0.31662  0.34830  1.0000
  C   C75       1.0  0.21206  0.29838  0.33520  1.0000
  H   H41       1.0  0.31388  0.17733  0.38517  1.0000
  H   H42       1.0  0.22407  0.19583  0.36077  1.0000
  H   H43       1.0  0.28849  0.31197  0.36138  1.0000
  C   C76       1.0  0.30074  0.09306  0.33316  1.0000
  C   C77       1.0  0.31893  0.07645  0.34761  1.0000
  C   C78       1.0  0.30065  0.04144  0.35143  1.0000
  N   N21       1.0  0.31803  0.12608  0.32172  1.0000
  C   C79       1.0  0.21194  0.46703  0.35232  1.0000
  C   C80       1.0  0.21192  0.41531  0.34000  1.0000
  H   H44       1.0  0.33304  0.13838  0.37005  1.0000
  H   H45       1.0  0.31434  0.03024  0.36162  1.0000
  N   N22       1.0  0.26047  0.39744  0.41653  1.0000
  C   C81       1.0  0.26175  0.36902  0.42892  1.0000
  C   C82       1.0  0.26390  0.35208  0.35177  1.0000
  C   C83       1.0  0.25520  0.35495  0.51434  1.0000
  O   O25       1.0  0.23786  0.36009  0.56603  1.0000
  O   O26       1.0  0.27298  0.34559  0.55062  1.0000
  H   H46       1.0  0.28895  0.34385  0.52350  1.0000
  N   N23       1.0  0.36761  0.25826  0.41548  1.0000
  C   C84       1.0  0.39733  0.25951  0.42666  1.0000
  C   C85       1.0  0.41591  0.26147  0.34857  1.0000
  C   C86       1.0  0.40517  0.25307  0.51183  1.0000
  O   O27       1.0  0.38286  0.23478  0.56277  1.0000
  O   O28       1.0  0.43232  0.27102  0.54774  1.0000
  H   H47       1.0  0.44975  0.28740  0.52075  1.0000
  N   N24       1.0  0.25158  0.10972  0.41540  1.0000
  C   C87       1.0  0.25007  0.13790  0.43020  1.0000
  C   C88       1.0  0.24860  0.15585  0.35450  1.0000
  C   C89       1.0  0.25595  0.15096  0.51678  1.0000
  O   O29       1.0  0.27297  0.14532  0.56837  1.0000
  O   O30       1.0  0.23846  0.16070  0.55290  1.0000
  H   H48       1.0  0.22285  0.16295  0.52545  1.0000
  N   N25       1.0  0.39999  0.14364  0.41435  1.0000
  C   C90       1.0  0.37156  0.11400  0.42746  1.0000
  C   C91       1.0  0.35440  0.09474  0.35070  1.0000
  C   C92       1.0  0.35757  0.10680  0.51300  1.0000
  O   O31       1.0  0.36281  0.12948  0.56408  1.0000
  O   O32       1.0  0.34814  0.07977  0.54996  1.0000
  H   H49       1.0  0.34632  0.06194  0.52332  1.0000
  C   C93       1.0  0.48868  0.74515  0.34484  1.0000
  C   C94       1.0  0.46973  0.70971  0.33774  1.0000
  C   C95       1.0  0.43484  0.69144  0.32936  1.0000
  H   H50       1.0  0.48112  0.69595  0.33524  1.0000
  H   H51       1.0  0.37465  0.67450  0.28512  1.0000
  C   C96       1.0  0.26530  0.74495  0.34507  1.0000
  C   C97       1.0  0.30068  0.76132  0.33729  1.0000
  C   C98       1.0  0.31895  0.74459  0.33485  1.0000
  H   H52       1.0  0.31434  0.78637  0.33048  1.0000
  C   C99       1.0  0.24735  0.76289  0.34426  1.0000
  C   C100      1.0  0.21196  0.74649  0.33656  1.0000
  H   H53       1.0  0.33710  0.70151  0.30370  1.0000
  C   C101      1.0  0.26523  0.52219  0.34490  1.0000
  C   C102      1.0  0.24884  0.54120  0.33753  1.0000
  C   C103      1.0  0.26557  0.57610  0.32952  1.0000
  H   H54       1.0  0.22371  0.52983  0.33411  1.0000
  C   C104      1.0  0.24735  0.98626  0.34545  1.0000
  C   C105      1.0  0.24704  0.93226  0.33337  1.0000
  C   C106      1.0  0.26375  0.96725  0.33794  1.0000
  H   H55       1.0  0.28885  0.97866  0.33268  1.0000
  H   H56       1.0  0.20391  0.87094  0.29916  1.0000
  H   H57       1.0  0.30869  0.63735  0.28962  1.0000
  C   C107      1.0  0.26427  0.91405  0.33786  1.0000
  N   N26       1.0  0.26574  0.86765  0.27233  1.0000
  C   C108      1.0  0.26792  0.89783  0.26111  1.0000
  C   C109      1.0  0.26697  0.90737  0.17327  1.0000
  O   O33       1.0  0.24193  0.88968  0.13000  1.0000
  O   O34       1.0  0.28254  0.93664  0.14912  1.0000
  H   H58       1.0  0.30078  0.95210  0.17556  1.0000
  C   C110      1.0  0.35440  0.76191  0.33730  1.0000
  N   N27       1.0  0.40180  0.76309  0.26974  1.0000
  C   C111      1.0  0.37371  0.76523  0.25958  1.0000
  C   C112      1.0  0.36184  0.76411  0.17310  1.0000
  O   O35       1.0  0.36788  0.74971  0.11385  1.0000
  O   O36       1.0  0.35424  0.78451  0.14598  1.0000
  H   H59       1.0  0.35223  0.79893  0.18029  1.0000
  C   C113      1.0  0.24838  0.59433  0.33497  1.0000
  N   N28       1.0  0.24716  0.64124  0.27368  1.0000
  C   C114      1.0  0.24500  0.61118  0.25945  1.0000
  C   C115      1.0  0.24622  0.60163  0.17157  1.0000
  O   O37       1.0  0.25997  0.62279  0.11360  1.0000
  O   O38       1.0  0.22698  0.57349  0.14297  1.0000
  H   H60       1.0  0.21315  0.55642  0.17648  1.0000
  C   C116      1.0  0.41638  0.65604  0.33523  1.0000
  N   N29       1.0  0.36991  0.60804  0.27090  1.0000
  C   C117      1.0  0.40015  0.63589  0.25895  1.0000
  C   C118      1.0  0.40988  0.64585  0.17085  1.0000
  O   O39       1.0  0.39185  0.65205  0.12516  1.0000
  O   O40       1.0  0.43922  0.65982  0.14724  1.0000
  H   H61       1.0  0.45487  0.65774  0.17512  1.0000
  C   C119      1.0  0.41799  0.70976  0.33161  1.0000
  C   C120      1.0  0.43444  0.74453  0.34540  1.0000
  C   C121      1.0  0.46940  0.76130  0.35039  1.0000
  N   N30       1.0  0.38498  0.69426  0.32105  1.0000
  H   H62       1.0  0.37371  0.69345  0.37667  1.0000
  H   H63       1.0  0.48049  0.78620  0.36020  1.0000
  C   C122      1.0  0.30081  0.70951  0.34322  1.0000
  C   C123      1.0  0.26585  0.69131  0.35378  1.0000
  C   C124      1.0  0.24907  0.70955  0.35273  1.0000
  N   N31       1.0  0.31666  0.69218  0.33622  1.0000
  C   C125      1.0  0.26359  0.79831  0.35124  1.0000
  C   C126      1.0  0.24688  0.81662  0.34830  1.0000
  C   C127      1.0  0.21206  0.79838  0.33520  1.0000
  H   H64       1.0  0.31388  0.67733  0.38517  1.0000
  H   H65       1.0  0.22407  0.69583  0.36077  1.0000
  H   H66       1.0  0.28849  0.81197  0.36138  1.0000
  C   C128      1.0  0.30074  0.59306  0.33316  1.0000
  C   C129      1.0  0.31894  0.57645  0.34761  1.0000
  C   C130      1.0  0.30065  0.54144  0.35143  1.0000
  N   N32       1.0  0.31803  0.62608  0.32172  1.0000
  C   C131      1.0  0.21194  0.96703  0.35232  1.0000
  C   C132      1.0  0.21192  0.91531  0.34000  1.0000
  H   H67       1.0  0.33304  0.63838  0.37005  1.0000
  H   H68       1.0  0.31434  0.53024  0.36162  1.0000
  N   N33       1.0  0.26047  0.89744  0.41653  1.0000
  C   C133      1.0  0.26175  0.86902  0.42892  1.0000
  C   C134      1.0  0.26390  0.85208  0.35177  1.0000
  C   C135      1.0  0.25520  0.85495  0.51434  1.0000
  O   O41       1.0  0.23786  0.86009  0.56603  1.0000
  O   O42       1.0  0.27298  0.84559  0.55062  1.0000
  H   H69       1.0  0.28895  0.84385  0.52350  1.0000
  N   N34       1.0  0.36761  0.75826  0.41548  1.0000
  C   C136      1.0  0.39733  0.75951  0.42666  1.0000
  C   C137      1.0  0.41591  0.76147  0.34857  1.0000
  C   C138      1.0  0.40517  0.75307  0.51183  1.0000
  O   O43       1.0  0.38286  0.73479  0.56277  1.0000
  O   O44       1.0  0.43232  0.77102  0.54774  1.0000
  H   H70       1.0  0.44975  0.78740  0.52076  1.0000
  N   N35       1.0  0.25159  0.60972  0.41540  1.0000
  C   C139      1.0  0.25007  0.63790  0.43020  1.0000
  C   C140      1.0  0.24860  0.65585  0.35450  1.0000
  C   C141      1.0  0.25595  0.65097  0.51678  1.0000
  O   O45       1.0  0.27297  0.64532  0.56837  1.0000
  O   O46       1.0  0.23846  0.66070  0.55290  1.0000
  H   H71       1.0  0.22285  0.66295  0.52545  1.0000
  N   N36       1.0  0.40000  0.64365  0.41435  1.0000
  C   C142      1.0  0.37156  0.61400  0.42746  1.0000
  C   C143      1.0  0.35440  0.59474  0.35070  1.0000
  C   C144      1.0  0.35757  0.60680  0.51300  1.0000
  O   O47       1.0  0.36281  0.62948  0.56408  1.0000
  O   O48       1.0  0.34814  0.57977  0.54996  1.0000
  H   H72       1.0  0.34632  0.56194  0.52332  1.0000
  C   C145      1.0  0.98868  0.24515  0.34484  1.0000
  C   C146      1.0  0.96974  0.20971  0.33774  1.0000
  C   C147      1.0  0.93485  0.19144  0.32936  1.0000
  H   H73       1.0  0.98112  0.19595  0.33524  1.0000
  C   C148      1.0  0.52459  0.26333  0.34509  1.0000
  C   C149      1.0  0.57846  0.31699  0.32966  1.0000
  C   C150      1.0  0.54356  0.29876  0.33798  1.0000
  H   H74       1.0  0.53218  0.31252  0.33508  1.0000
  H   H75       1.0  0.63907  0.33461  0.28731  1.0000
  H   H76       1.0  0.87465  0.17450  0.28512  1.0000
  C   C151      1.0  0.76530  0.24495  0.34507  1.0000
  C   C152      1.0  0.80068  0.26132  0.33729  1.0000
  C   C153      1.0  0.81895  0.24459  0.33485  1.0000
  H   H77       1.0  0.81434  0.28637  0.33048  1.0000
  C   C154      1.0  0.74735  0.26289  0.34426  1.0000
  C   C155      1.0  0.69378  0.26324  0.33056  1.0000
  C   C156      1.0  0.71196  0.24649  0.33656  1.0000
  H   H78       1.0  0.69820  0.22138  0.33208  1.0000
  H   H79       1.0  0.67652  0.30660  0.29002  1.0000
  H   H80       1.0  0.83710  0.20151  0.30370  1.0000
  C   C157      1.0  0.76523  0.02219  0.34490  1.0000
  C   C158      1.0  0.74884  0.04120  0.33753  1.0000
  C   C159      1.0  0.76557  0.07610  0.32952  1.0000
  H   H81       1.0  0.72371  0.02983  0.33411  1.0000
  C   C160      1.0  0.74735  0.48626  0.34545  1.0000
  C   C161      1.0  0.74704  0.43225  0.33337  1.0000
  C   C162      1.0  0.76375  0.46725  0.33794  1.0000
  H   H82       1.0  0.78885  0.47866  0.33268  1.0000
  H   H83       1.0  0.70391  0.37094  0.29916  1.0000
  H   H84       1.0  0.80869  0.13735  0.28962  1.0000
  C   C163      1.0  0.65837  0.24610  0.33448  1.0000
  N   N37       1.0  0.61067  0.24495  0.26982  1.0000
  C   C164      1.0  0.63857  0.24260  0.25784  1.0000
  C   C165      1.0  0.64979  0.24350  0.17068  1.0000
  O   O49       1.0  0.64303  0.25742  0.11165  1.0000
  O   O50       1.0  0.65814  0.22368  0.14344  1.0000
  H   H85       1.0  0.66082  0.20966  0.17774  1.0000
  C   C166      1.0  0.76426  0.41405  0.33786  1.0000
  N   N38       1.0  0.76574  0.36765  0.27233  1.0000
  C   C167      1.0  0.76792  0.39783  0.26111  1.0000
  C   C168      1.0  0.76696  0.40737  0.17327  1.0000
  O   O51       1.0  0.74193  0.38968  0.13000  1.0000
  O   O52       1.0  0.78253  0.43664  0.14912  1.0000
  H   H86       1.0  0.80078  0.45211  0.17556  1.0000
  C   C169      1.0  0.59679  0.35241  0.33520  1.0000
  N   N39       1.0  0.64343  0.40054  0.27249  1.0000
  C   C170      1.0  0.61335  0.37253  0.25919  1.0000
  C   C171      1.0  0.60330  0.36163  0.17161  1.0000
  O   O53       1.0  0.62429  0.36900  0.11313  1.0000
  O   O54       1.0  0.57518  0.35319  0.14385  1.0000
  H   H87       1.0  0.55830  0.35011  0.17797  1.0000
  C   C172      1.0  0.85440  0.26191  0.33730  1.0000
  N   N40       1.0  0.90180  0.26309  0.26974  1.0000
  C   C173      1.0  0.87370  0.26523  0.25958  1.0000
  C   C174      1.0  0.86184  0.26412  0.17310  1.0000
  O   O55       1.0  0.86788  0.24971  0.11385  1.0000
  O   O56       1.0  0.85424  0.28451  0.14598  1.0000
  H   H88       1.0  0.85223  0.29894  0.18029  1.0000
  C   C175      1.0  0.74838  0.09433  0.33497  1.0000
  N   N41       1.0  0.74716  0.14125  0.27368  1.0000
  C   C176      1.0  0.74500  0.11118  0.25945  1.0000
  C   C177      1.0  0.74622  0.10163  0.17157  1.0000
  O   O57       1.0  0.75997  0.12279  0.11360  1.0000
  O   O58       1.0  0.72698  0.07349  0.14297  1.0000
  H   H89       1.0  0.71314  0.05642  0.17648  1.0000
  C   C178      1.0  0.91638  0.15604  0.33523  1.0000
  N   N42       1.0  0.86991  0.10804  0.27090  1.0000
  C   C179      1.0  0.90015  0.13589  0.25895  1.0000
  C   C180      1.0  0.90988  0.14585  0.17085  1.0000
  O   O59       1.0  0.89185  0.15205  0.12516  1.0000
  O   O60       1.0  0.93922  0.15982  0.14724  1.0000
  H   H90       1.0  0.95487  0.15774  0.17512  1.0000
  C   C181      1.0  0.91799  0.20976  0.33161  1.0000
  C   C182      1.0  0.93444  0.24454  0.34540  1.0000
  C   C183      1.0  0.96940  0.26130  0.35039  1.0000
  N   N43       1.0  0.88498  0.19426  0.32105  1.0000
  C   C184      1.0  0.54387  0.24720  0.35111  1.0000
  C   C185      1.0  0.57884  0.26396  0.34658  1.0000
  C   C186      1.0  0.59541  0.29875  0.33234  1.0000
  N   N44       1.0  0.62843  0.31425  0.32075  1.0000
  H   H91       1.0  0.64029  0.31302  0.37257  1.0000
  H   H92       1.0  0.87371  0.19345  0.37667  1.0000
  H   H93       1.0  0.98049  0.28620  0.36020  1.0000
  H   H94       1.0  0.53275  0.22230  0.36095  1.0000
  C   C187      1.0  0.80081  0.20951  0.34322  1.0000
  C   C188      1.0  0.76585  0.19131  0.35378  1.0000
  C   C189      1.0  0.74907  0.20955  0.35273  1.0000
  N   N45       1.0  0.81666  0.19218  0.33622  1.0000
  C   C190      1.0  0.76359  0.29832  0.35124  1.0000
  C   C191      1.0  0.74689  0.31662  0.34830  1.0000
  C   C192      1.0  0.71206  0.29838  0.33520  1.0000
  N   N46       1.0  0.69647  0.31580  0.32498  1.0000
  H   H95       1.0  0.69658  0.32753  0.37907  1.0000
  H   H96       1.0  0.81388  0.17733  0.38517  1.0000
  H   H97       1.0  0.72407  0.19583  0.36077  1.0000
  H   H98       1.0  0.78849  0.31197  0.36138  1.0000
  C   C193      1.0  0.80074  0.09306  0.33316  1.0000
  C   C194      1.0  0.81893  0.07645  0.34761  1.0000
  C   C195      1.0  0.80065  0.04144  0.35143  1.0000
  N   N47       1.0  0.81803  0.12608  0.32172  1.0000
  C   C196      1.0  0.71193  0.46703  0.35232  1.0000
  C   C197      1.0  0.69369  0.43200  0.35171  1.0000
  C   C198      1.0  0.71192  0.41531  0.34000  1.0000
  N   N48       1.0  0.69468  0.38218  0.33162  1.0000
  H   H99       1.0  0.67936  0.36990  0.37945  1.0000
  H   H100      1.0  0.83304  0.13838  0.37005  1.0000
  H   H101      1.0  0.81434  0.03024  0.36162  1.0000
  H   H102      1.0  0.69819  0.47826  0.36078  1.0000
  N   N49       1.0  0.64585  0.24996  0.41362  1.0000
  C   C199      1.0  0.61622  0.24878  0.42646  1.0000
  C   C200      1.0  0.59713  0.24681  0.34951  1.0000
  C   C201      1.0  0.60885  0.25537  0.51200  1.0000
  O   O61       1.0  0.63143  0.27296  0.56315  1.0000
  O   O62       1.0  0.58184  0.23754  0.54879  1.0000
  H   H103      1.0  0.56411  0.22146  0.52201  1.0000
  N   N50       1.0  0.76047  0.39744  0.41653  1.0000
  C   C202      1.0  0.76175  0.36902  0.42892  1.0000
  C   C203      1.0  0.76390  0.35208  0.35177  1.0000
  C   C204      1.0  0.75520  0.35495  0.51434  1.0000
  O   O63       1.0  0.73786  0.36009  0.56603  1.0000
  O   O64       1.0  0.77298  0.34559  0.55062  1.0000
  H   H104      1.0  0.78895  0.34385  0.52350  1.0000
  N   N51       1.0  0.61243  0.36474  0.41525  1.0000
  C   C205      1.0  0.64063  0.39448  0.42935  1.0000
  C   C206      1.0  0.65820  0.41372  0.35307  1.0000
  C   C207      1.0  0.65403  0.40181  0.51557  1.0000
  O   O65       1.0  0.64870  0.37923  0.56710  1.0000
  O   O66       1.0  0.66362  0.42900  0.55171  1.0000
  H   H105      1.0  0.66562  0.44679  0.52438  1.0000
  N   N52       1.0  0.86761  0.25826  0.41548  1.0000
  C   C208      1.0  0.89733  0.25951  0.42666  1.0000
  C   C209      1.0  0.91591  0.26147  0.34857  1.0000
  C   C210      1.0  0.90517  0.25307  0.51183  1.0000
  O   O67       1.0  0.88286  0.23478  0.56277  1.0000
  O   O68       1.0  0.93232  0.27102  0.54774  1.0000
  H   H106      1.0  0.94975  0.28740  0.52075  1.0000
  N   N53       1.0  0.75158  0.10972  0.41540  1.0000
  C   C211      1.0  0.75007  0.13790  0.43020  1.0000
  C   C212      1.0  0.74860  0.15585  0.35450  1.0000
  C   C213      1.0  0.75595  0.15096  0.51678  1.0000
  O   O69       1.0  0.77297  0.14532  0.56837  1.0000
  O   O70       1.0  0.73846  0.16070  0.55290  1.0000
  H   H107      1.0  0.72285  0.16295  0.52545  1.0000
  N   N54       1.0  0.89999  0.14364  0.41435  1.0000
  C   C214      1.0  0.87156  0.11400  0.42746  1.0000
  C   C215      1.0  0.85440  0.09474  0.35070  1.0000
  C   C216      1.0  0.85757  0.10680  0.51300  1.0000
  O   O71       1.0  0.86281  0.12948  0.56408  1.0000
  O   O72       1.0  0.84814  0.07977  0.54996  1.0000
  H   H108      1.0  0.84631  0.06194  0.52332  1.0000
  C   C217      1.0  0.98868  0.74515  0.34484  1.0000
  C   C218      1.0  0.96973  0.70971  0.33774  1.0000
  C   C219      1.0  0.93484  0.69144  0.32936  1.0000
  H   H109      1.0  0.98112  0.69595  0.33524  1.0000
  C   C220      1.0  0.52460  0.76333  0.34509  1.0000
  C   C221      1.0  0.57846  0.81699  0.32966  1.0000
  C   C222      1.0  0.54356  0.79876  0.33798  1.0000
  H   H110      1.0  0.53218  0.81252  0.33508  1.0000
  H   H111      1.0  0.63907  0.83461  0.28731  1.0000
  H   H112      1.0  0.87465  0.67450  0.28512  1.0000
  C   C223      1.0  0.76530  0.74495  0.34507  1.0000
  C   C224      1.0  0.80068  0.76132  0.33729  1.0000
  C   C225      1.0  0.81895  0.74459  0.33485  1.0000
  H   H113      1.0  0.81434  0.78637  0.33048  1.0000
  C   C226      1.0  0.74735  0.76289  0.34426  1.0000
  C   C227      1.0  0.69378  0.76324  0.33056  1.0000
  C   C228      1.0  0.71196  0.74649  0.33656  1.0000
  H   H114      1.0  0.69820  0.72138  0.33208  1.0000
  H   H115      1.0  0.67652  0.80660  0.29002  1.0000
  H   H116      1.0  0.83710  0.70151  0.30370  1.0000
  C   C229      1.0  0.76523  0.52219  0.34490  1.0000
  C   C230      1.0  0.74884  0.54120  0.33753  1.0000
  C   C231      1.0  0.76557  0.57610  0.32952  1.0000
  H   H117      1.0  0.72371  0.52983  0.33411  1.0000
  C   C232      1.0  0.74735  0.98626  0.34545  1.0000
  C   C233      1.0  0.74704  0.93226  0.33337  1.0000
  C   C234      1.0  0.76375  0.96725  0.33794  1.0000
  H   H118      1.0  0.78885  0.97866  0.33268  1.0000
  H   H119      1.0  0.70391  0.87094  0.29916  1.0000
  H   H120      1.0  0.80869  0.63735  0.28962  1.0000
  C   C235      1.0  0.65836  0.74610  0.33448  1.0000
  N   N55       1.0  0.61067  0.74495  0.26982  1.0000
  C   C236      1.0  0.63857  0.74260  0.25784  1.0000
  C   C237      1.0  0.64979  0.74350  0.17068  1.0000
  O   O73       1.0  0.64303  0.75742  0.11165  1.0000
  O   O74       1.0  0.65814  0.72368  0.14344  1.0000
  H   H121      1.0  0.66082  0.70966  0.17774  1.0000
  C   C238      1.0  0.76427  0.91405  0.33786  1.0000
  N   N56       1.0  0.76574  0.86765  0.27233  1.0000
  C   C239      1.0  0.76791  0.89783  0.26111  1.0000
  C   C240      1.0  0.76697  0.90737  0.17327  1.0000
  O   O75       1.0  0.74193  0.88968  0.13000  1.0000
  O   O76       1.0  0.78254  0.93664  0.14912  1.0000
  H   H122      1.0  0.80078  0.95210  0.17556  1.0000
  C   C241      1.0  0.59679  0.85240  0.33520  1.0000
  N   N57       1.0  0.64343  0.90053  0.27249  1.0000
  C   C242      1.0  0.61335  0.87253  0.25919  1.0000
  C   C243      1.0  0.60330  0.86163  0.17161  1.0000
  O   O77       1.0  0.62429  0.86899  0.11313  1.0000
  O   O78       1.0  0.57518  0.85320  0.14385  1.0000
  H   H123      1.0  0.55830  0.85011  0.17797  1.0000
  C   C244      1.0  0.85440  0.76191  0.33730  1.0000
  N   N58       1.0  0.90180  0.76309  0.26974  1.0000
  C   C245      1.0  0.87371  0.76523  0.25958  1.0000
  C   C246      1.0  0.86184  0.76411  0.17310  1.0000
  O   O79       1.0  0.86788  0.74971  0.11385  1.0000
  O   O80       1.0  0.85424  0.78451  0.14598  1.0000
  H   H124      1.0  0.85223  0.79893  0.18029  1.0000
  C   C247      1.0  0.74838  0.59433  0.33497  1.0000
  N   N59       1.0  0.74716  0.64124  0.27368  1.0000
  C   C248      1.0  0.74501  0.61118  0.25945  1.0000
  C   C249      1.0  0.74622  0.60163  0.17157  1.0000
  O   O81       1.0  0.75997  0.62279  0.11360  1.0000
  O   O82       1.0  0.72698  0.57349  0.14297  1.0000
  H   H125      1.0  0.71315  0.55642  0.17648  1.0000
  C   C250      1.0  0.91638  0.65604  0.33523  1.0000
  N   N60       1.0  0.86991  0.60804  0.27090  1.0000
  C   C251      1.0  0.90015  0.63589  0.25895  1.0000
  C   C252      1.0  0.90988  0.64585  0.17085  1.0000
  O   O83       1.0  0.89185  0.65205  0.12516  1.0000
  O   O84       1.0  0.93921  0.65982  0.14724  1.0000
  H   H126      1.0  0.95487  0.65774  0.17512  1.0000
  C   C253      1.0  0.91799  0.70976  0.33161  1.0000
  C   C254      1.0  0.93444  0.74453  0.34540  1.0000
  C   C255      1.0  0.96940  0.76130  0.35039  1.0000
  N   N61       1.0  0.88498  0.69426  0.32105  1.0000
  C   C256      1.0  0.54387  0.74720  0.35111  1.0000
  C   C257      1.0  0.57884  0.76396  0.34658  1.0000
  C   C258      1.0  0.59541  0.79875  0.33234  1.0000
  N   N62       1.0  0.62843  0.81425  0.32075  1.0000
  H   H127      1.0  0.64029  0.81302  0.37257  1.0000
  H   H128      1.0  0.87371  0.69345  0.37667  1.0000
  H   H129      1.0  0.98049  0.78620  0.36020  1.0000
  H   H130      1.0  0.53275  0.72230  0.36095  1.0000
  C   C259      1.0  0.80081  0.70951  0.34322  1.0000
  C   C260      1.0  0.76585  0.69131  0.35378  1.0000
  C   C261      1.0  0.74907  0.70955  0.35273  1.0000
  N   N63       1.0  0.81666  0.69218  0.33622  1.0000
  C   C262      1.0  0.76359  0.79831  0.35124  1.0000
  C   C263      1.0  0.74689  0.81662  0.34830  1.0000
  C   C264      1.0  0.71206  0.79838  0.33520  1.0000
  N   N64       1.0  0.69647  0.81580  0.32498  1.0000
  H   H131      1.0  0.69658  0.82753  0.37907  1.0000
  H   H132      1.0  0.81388  0.67733  0.38517  1.0000
  H   H133      1.0  0.72407  0.69583  0.36077  1.0000
  H   H134      1.0  0.78849  0.81197  0.36138  1.0000
  C   C265      1.0  0.80074  0.59306  0.33316  1.0000
  C   C266      1.0  0.81893  0.57645  0.34761  1.0000
  C   C267      1.0  0.80065  0.54144  0.35143  1.0000
  N   N65       1.0  0.81803  0.62608  0.32172  1.0000
  C   C268      1.0  0.71194  0.96703  0.35232  1.0000
  C   C269      1.0  0.69369  0.93200  0.35171  1.0000
  C   C270      1.0  0.71192  0.91531  0.34000  1.0000
  N   N66       1.0  0.69468  0.88218  0.33162  1.0000
  H   H135      1.0  0.67935  0.86990  0.37945  1.0000
  H   H136      1.0  0.83304  0.63838  0.37005  1.0000
  H   H137      1.0  0.81434  0.53024  0.36162  1.0000
  H   H138      1.0  0.69819  0.97825  0.36078  1.0000
  N   N67       1.0  0.64585  0.74996  0.41362  1.0000
  C   C271      1.0  0.61622  0.74878  0.42646  1.0000
  C   C272      1.0  0.59713  0.74681  0.34951  1.0000
  C   C273      1.0  0.60885  0.75537  0.51200  1.0000
  O   O85       1.0  0.63143  0.77296  0.56315  1.0000
  O   O86       1.0  0.58184  0.73754  0.54879  1.0000
  H   H139      1.0  0.56411  0.72146  0.52201  1.0000
  N   N68       1.0  0.76047  0.89744  0.41653  1.0000
  C   C274      1.0  0.76175  0.86902  0.42892  1.0000
  C   C275      1.0  0.76390  0.85208  0.35177  1.0000
  C   C276      1.0  0.75520  0.85495  0.51434  1.0000
  O   O87       1.0  0.73786  0.86009  0.56603  1.0000
  O   O88       1.0  0.77298  0.84559  0.55062  1.0000
  H   H140      1.0  0.78895  0.84385  0.52350  1.0000
  N   N69       1.0  0.61243  0.86474  0.41525  1.0000
  C   C277      1.0  0.64063  0.89448  0.42935  1.0000
  C   C278      1.0  0.65820  0.91372  0.35307  1.0000
  C   C279      1.0  0.65403  0.90181  0.51557  1.0000
  O   O89       1.0  0.64870  0.87923  0.56710  1.0000
  O   O90       1.0  0.66362  0.92900  0.55171  1.0000
  H   H141      1.0  0.66562  0.94679  0.52438  1.0000
  N   N70       1.0  0.86761  0.75826  0.41548  1.0000
  C   C280      1.0  0.89733  0.75951  0.42666  1.0000
  C   C281      1.0  0.91592  0.76147  0.34857  1.0000
  C   C282      1.0  0.90517  0.75307  0.51183  1.0000
  O   O91       1.0  0.88286  0.73479  0.56277  1.0000
  O   O92       1.0  0.93232  0.77102  0.54774  1.0000
  H   H142      1.0  0.94975  0.78740  0.52076  1.0000
  N   N71       1.0  0.75158  0.60972  0.41540  1.0000
  C   C283      1.0  0.75007  0.63790  0.43020  1.0000
  C   C284      1.0  0.74860  0.65585  0.35450  1.0000
  C   C285      1.0  0.75596  0.65097  0.51678  1.0000
  O   O93       1.0  0.77297  0.64532  0.56837  1.0000
  O   O94       1.0  0.73846  0.66070  0.55290  1.0000
  H   H143      1.0  0.72285  0.66295  0.52545  1.0000
  N   N72       1.0  0.90000  0.64365  0.41435  1.0000
  C   C286      1.0  0.87156  0.61400  0.42746  1.0000
  C   C287      1.0  0.85440  0.59474  0.35070  1.0000
  C   C288      1.0  0.85757  0.60680  0.51300  1.0000
  O   O95       1.0  0.86281  0.62948  0.56408  1.0000
  O   O96       1.0  0.84814  0.57977  0.54996  1.0000
  H   H144      1.0  0.84632  0.56194  0.52332  1.0000
