data_image0
_chemical_formula_structural       N12C4H2C4H2C4H2C4H2C4H2C4H2C4H2C4H2C4H2C4H2C4H2C4H2CNCNCNC18H12CNCNCNC18H12CNCNCNC18H12CNCNCNC18H12CNCNCNC18H12CNCNCNC18H12CNCNCNC18H12CNCNCNC18H12CNCNCNC18H12CNCNCNC18H12CNCNCNC18H12CNCNCNC18H12C4H2C4H2C4H2C4H2C4H2C4H2N24
_chemical_formula_sum              "N72 C324 H180"
_cell_length_a       74.2875
_cell_length_b       74.2874
_cell_length_c       15.0246
_cell_angle_alpha    90
_cell_angle_beta     90
_cell_angle_gamma    120

_space_group_name_H-M_alt    "P 1"
_space_group_IT_number       1

loop_
  _space_group_symop_operation_xyz
  'x, y, z'

loop_
  _atom_site_type_symbol
  _atom_site_label
  _atom_site_symmetry_multiplicity
  _atom_site_fract_x
  _atom_site_fract_y
  _atom_site_fract_z
  _atom_site_occupancy
  N   N1        1.0  0.19649  0.37485  0.29376  1.0000
  N   N2        1.0  0.20653  0.39513  0.28720  1.0000
  N   N3        1.0  0.60947  0.78786  0.29460  1.0000
  N   N4        1.0  0.58920  0.77782  0.28765  1.0000
  N   N5        1.0  0.17701  0.78782  0.29433  1.0000
  N   N6        1.0  0.18726  0.77780  0.28719  1.0000
  N   N7        1.0  0.81156  0.60514  0.29466  1.0000
  N   N8        1.0  0.80132  0.58487  0.28747  1.0000
  N   N9        1.0  0.37915  0.17266  0.29452  1.0000
  N   N10       1.0  0.39943  0.18291  0.28763  1.0000
  N   N11       1.0  0.79217  0.17270  0.29406  1.0000
  N   N12       1.0  0.78212  0.18293  0.28747  1.0000
  C   C1        1.0  0.20447  0.17816  0.31006  1.0000
  C   C2        1.0  0.21144  0.19591  0.25545  1.0000
  C   C3        1.0  0.20060  0.20689  0.25499  1.0000
  C   C4        1.0  0.18280  0.20011  0.30917  1.0000
  H   H1        1.0  0.20564  0.21954  0.21430  1.0000
  H   H2        1.0  0.22413  0.20082  0.21511  1.0000
  C   C5        1.0  0.80582  0.01165  0.30911  1.0000
  C   C6        1.0  0.78802  0.00064  0.25496  1.0000
  C   C7        1.0  0.77719  0.97882  0.25539  1.0000
  C   C8        1.0  0.78415  0.96803  0.30998  1.0000
  H   H3        1.0  0.76449  0.97105  0.21507  1.0000
  H   H4        1.0  0.78298  0.00825  0.21428  1.0000
  C   C9        1.0  0.97248  0.77943  0.30690  1.0000
  C   C10       1.0  0.98337  0.77268  0.25179  1.0000
  C   C11       1.0  0.00520  0.78359  0.25176  1.0000
  C   C12       1.0  0.01609  0.80124  0.30685  1.0000
  H   H5        1.0  0.01289  0.77871  0.21072  1.0000
  H   H6        1.0  0.97568  0.76011  0.21076  1.0000
  C   C13       1.0  0.78406  0.80140  0.30917  1.0000
  C   C14       1.0  0.77730  0.78363  0.25483  1.0000
  C   C15       1.0  0.78828  0.77279  0.25525  1.0000
  C   C16       1.0  0.80600  0.77973  0.31000  1.0000
  H   H7        1.0  0.78338  0.76012  0.21480  1.0000
  H   H8        1.0  0.76467  0.77862  0.21405  1.0000
  C   C17       1.0  0.18261  0.96798  0.31014  1.0000
  C   C18       1.0  0.20033  0.97876  0.25535  1.0000
  C   C19       1.0  0.21130  0.00059  0.25487  1.0000
  C   C20       1.0  0.20454  0.01159  0.30919  1.0000
  H   H9        1.0  0.22393  0.00819  0.21405  1.0000
  H   H10       1.0  0.20522  0.97099  0.21489  1.0000
  C   C21       1.0  0.01614  0.19986  0.31243  1.0000
  C   C22       1.0  0.00524  0.20681  0.25852  1.0000
  C   C23       1.0  0.98342  0.19590  0.25850  1.0000
  C   C24       1.0  0.97252  0.17804  0.31239  1.0000
  H   H11       1.0  0.97574  0.20095  0.21833  1.0000
  H   H12       1.0  0.01293  0.21955  0.21835  1.0000
  C   C25       1.0  0.21146  0.57967  0.34493  1.0000
  C   C26       1.0  0.20790  0.58736  0.26472  1.0000
  C   C27       1.0  0.20753  0.60614  0.26548  1.0000
  C   C28       1.0  0.21070  0.61702  0.34648  1.0000
  H   H13       1.0  0.20728  0.61278  0.20621  1.0000
  H   H14       1.0  0.20791  0.58078  0.20490  1.0000
  C   C29       1.0  0.40524  0.61664  0.34456  1.0000
  C   C30       1.0  0.39738  0.60579  0.26361  1.0000
  C   C31       1.0  0.37836  0.58685  0.26344  1.0000
  C   C32       1.0  0.36744  0.57897  0.34421  1.0000
  H   H15       1.0  0.37163  0.58025  0.20387  1.0000
  H   H16       1.0  0.40401  0.61252  0.20411  1.0000
  C   C33       1.0  0.36664  0.77223  0.34702  1.0000
  C   C34       1.0  0.37786  0.77592  0.26664  1.0000
  C   C35       1.0  0.39679  0.77586  0.26652  1.0000
  C   C36       1.0  0.40431  0.77212  0.34676  1.0000
  H   H17       1.0  0.40363  0.77620  0.20697  1.0000
  H   H18       1.0  0.37137  0.77630  0.20713  1.0000
  C   C37       1.0  0.77791  0.40055  0.34669  1.0000
  C   C38       1.0  0.78107  0.39288  0.26557  1.0000
  C   C39       1.0  0.78063  0.37369  0.26452  1.0000
  C   C40       1.0  0.77705  0.36240  0.34459  1.0000
  H   H19       1.0  0.78062  0.36712  0.20467  1.0000
  H   H20       1.0  0.78135  0.39980  0.20635  1.0000
  C   C41       1.0  0.58435  0.36221  0.34700  1.0000
  C   C42       1.0  0.59184  0.37343  0.26662  1.0000
  C   C43       1.0  0.61081  0.39240  0.26649  1.0000
  C   C44       1.0  0.62207  0.39994  0.34674  1.0000
  H   H21       1.0  0.61729  0.39925  0.20695  1.0000
  H   H22       1.0  0.58498  0.36693  0.20712  1.0000
  C   C45       1.0  0.62106  0.20576  0.34445  1.0000
  C   C46       1.0  0.61019  0.20273  0.26353  1.0000
  C   C47       1.0  0.59121  0.20273  0.26343  1.0000
  C   C48       1.0  0.58331  0.20572  0.34425  1.0000
  H   H23       1.0  0.58460  0.20284  0.20388  1.0000
  H   H24       1.0  0.61693  0.20286  0.20401  1.0000
  C   C49       1.0  0.13711  0.24312  0.33326  1.0000
  N   N13       1.0  0.14712  0.26424  0.33726  1.0000
  C   C50       1.0  0.13694  0.27515  0.34085  1.0000
  N   N14       1.0  0.11585  0.26399  0.33944  1.0000
  C   C51       1.0  0.10487  0.24290  0.33530  1.0000
  N   N15       1.0  0.11595  0.23286  0.33223  1.0000
  C   C52       1.0  0.14775  0.29728  0.34423  1.0000
  C   C53       1.0  0.16956  0.30914  0.33239  1.0000
  C   C54       1.0  0.18007  0.33102  0.33376  1.0000
  C   C55       1.0  0.16923  0.34189  0.34867  1.0000
  C   C56       1.0  0.14744  0.33005  0.36073  1.0000
  C   C57       1.0  0.13693  0.30822  0.35835  1.0000
  C   C58       1.0  0.14844  0.23234  0.32817  1.0000
  C   C59       1.0  0.17028  0.24328  0.31631  1.0000
  C   C60       1.0  0.18152  0.23274  0.30955  1.0000
  C   C61       1.0  0.17142  0.21080  0.31493  1.0000
  C   C62       1.0  0.14966  0.19984  0.32857  1.0000
  C   C63       1.0  0.13837  0.21039  0.33425  1.0000
  C   C64       1.0  0.08274  0.23208  0.33139  1.0000
  C   C65       1.0  0.07090  0.21011  0.33630  1.0000
  C   C66       1.0  0.04905  0.19955  0.33091  1.0000
  C   C67       1.0  0.03822  0.21052  0.31864  1.0000
  C   C68       1.0  0.05001  0.23247  0.31479  1.0000
  C   C69       1.0  0.07179  0.24302  0.32129  1.0000
  H   H25       1.0  0.19731  0.24141  0.30256  1.0000
  H   H26       1.0  0.17838  0.25914  0.31178  1.0000
  H   H27       1.0  0.14170  0.18397  0.33276  1.0000
  H   H28       1.0  0.12264  0.20175  0.34334  1.0000
  H   H29       1.0  0.07804  0.20148  0.34402  1.0000
  H   H30       1.0  0.04115  0.18366  0.33395  1.0000
  H   H31       1.0  0.07951  0.25889  0.31760  1.0000
  H   H32       1.0  0.04288  0.24115  0.30882  1.0000
  H   H33       1.0  0.12115  0.30045  0.36688  1.0000
  H   H34       1.0  0.13880  0.33716  0.36887  1.0000
  H   H35       1.0  0.19583  0.33893  0.32474  1.0000
  H   H36       1.0  0.17810  0.30202  0.32133  1.0000
  C   C70       1.0  0.74133  0.87937  0.33547  1.0000
  N   N16       1.0  0.72025  0.86839  0.34009  1.0000
  C   C71       1.0  0.70909  0.84731  0.34200  1.0000
  N   N17       1.0  0.71999  0.83713  0.33833  1.0000
  C   C72       1.0  0.74111  0.84714  0.33385  1.0000
  N   N18       1.0  0.75137  0.86829  0.33237  1.0000
  C   C73       1.0  0.68697  0.83654  0.34561  1.0000
  C   C74       1.0  0.67606  0.84741  0.35923  1.0000
  C   C75       1.0  0.65424  0.83694  0.36141  1.0000
  C   C76       1.0  0.64237  0.81515  0.34973  1.0000
  C   C77       1.0  0.65321  0.80425  0.33548  1.0000
  C   C78       1.0  0.67508  0.81471  0.33427  1.0000
  C   C79       1.0  0.75211  0.90149  0.33088  1.0000
  C   C80       1.0  0.74112  0.91238  0.32021  1.0000
  C   C81       1.0  0.75161  0.93414  0.31305  1.0000
  C   C82       1.0  0.77355  0.94598  0.31674  1.0000
  C   C83       1.0  0.78459  0.93522  0.32953  1.0000
  C   C84       1.0  0.77408  0.91338  0.33560  1.0000
  C   C85       1.0  0.75187  0.83579  0.32857  1.0000
  C   C86       1.0  0.77382  0.84584  0.33473  1.0000
  C   C87       1.0  0.78435  0.83454  0.32888  1.0000
  C   C88       1.0  0.77338  0.81280  0.31499  1.0000
  C   C89       1.0  0.75145  0.80271  0.30945  1.0000
  C   C90       1.0  0.74092  0.81396  0.31641  1.0000
  H   H37       1.0  0.74290  0.94123  0.30668  1.0000
  H   H38       1.0  0.72525  0.90461  0.31662  1.0000
  H   H39       1.0  0.80048  0.94317  0.33253  1.0000
  H   H40       1.0  0.78274  0.90629  0.34373  1.0000
  H   H41       1.0  0.78246  0.86157  0.34405  1.0000
  H   H42       1.0  0.80022  0.84249  0.33319  1.0000
  H   H43       1.0  0.72506  0.80588  0.31179  1.0000
  H   H44       1.0  0.74277  0.78693  0.30230  1.0000
  H   H45       1.0  0.68219  0.80614  0.32357  1.0000
  H   H46       1.0  0.64528  0.78848  0.32674  1.0000
  H   H47       1.0  0.64715  0.84562  0.36907  1.0000
  H   H48       1.0  0.68385  0.86320  0.36736  1.0000
  C   C91       1.0  0.10472  0.84710  0.33363  1.0000
  N   N19       1.0  0.11582  0.83709  0.33831  1.0000
  C   C92       1.0  0.13689  0.84726  0.34230  1.0000
  N   N20       1.0  0.14684  0.86834  0.34050  1.0000
  C   C93       1.0  0.13674  0.87933  0.33569  1.0000
  N   N21       1.0  0.11562  0.86826  0.33227  1.0000
  C   C94       1.0  0.14820  0.83645  0.34604  1.0000
  C   C95       1.0  0.13823  0.81463  0.33412  1.0000
  C   C96       1.0  0.14959  0.80413  0.33542  1.0000
  C   C97       1.0  0.17131  0.81497  0.35028  1.0000
  C   C98       1.0  0.18126  0.83675  0.36257  1.0000
  C   C99       1.0  0.16995  0.84727  0.36030  1.0000
  C   C100      1.0  0.08263  0.83573  0.32787  1.0000
  C   C101      1.0  0.07180  0.81392  0.31514  1.0000
  C   C102      1.0  0.05004  0.80264  0.30763  1.0000
  C   C103      1.0  0.03816  0.81268  0.31317  1.0000
  C   C104      1.0  0.04886  0.83440  0.32767  1.0000
  C   C105      1.0  0.07069  0.84574  0.33405  1.0000
  C   C106      1.0  0.14809  0.90144  0.33113  1.0000
  C   C107      1.0  0.13803  0.91334  0.33609  1.0000
  C   C108      1.0  0.14937  0.93518  0.33001  1.0000
  C   C109      1.0  0.17114  0.94592  0.31691  1.0000
  C   C110      1.0  0.18124  0.93407  0.31295  1.0000
  C   C111      1.0  0.16996  0.91231  0.32019  1.0000
  H   H49       1.0  0.04298  0.78687  0.30002  1.0000
  H   H50       1.0  0.07962  0.80587  0.31044  1.0000
  H   H51       1.0  0.04089  0.84231  0.33203  1.0000
  H   H52       1.0  0.07773  0.86145  0.34378  1.0000
  H   H53       1.0  0.12228  0.90626  0.34442  1.0000
  H   H54       1.0  0.14144  0.94314  0.33318  1.0000
  H   H55       1.0  0.17805  0.90454  0.31637  1.0000
  H   H56       1.0  0.19703  0.94115  0.30638  1.0000
  H   H57       1.0  0.17796  0.86304  0.36886  1.0000
  H   H58       1.0  0.19702  0.84539  0.37069  1.0000
  H   H59       1.0  0.14175  0.78837  0.32621  1.0000
  H   H60       1.0  0.12257  0.80610  0.32294  1.0000
  C   C112      1.0  0.85185  0.73692  0.33575  1.0000
  N   N22       1.0  0.84174  0.71584  0.34063  1.0000
  C   C113      1.0  0.85167  0.70470  0.34253  1.0000
  N   N23       1.0  0.87275  0.71559  0.33852  1.0000
  C   C114      1.0  0.88385  0.73670  0.33376  1.0000
  N   N24       1.0  0.87297  0.74696  0.33231  1.0000
  C   C115      1.0  0.84035  0.68258  0.34628  1.0000
  C   C116      1.0  0.81858  0.67165  0.36023  1.0000
  C   C117      1.0  0.80726  0.64983  0.36242  1.0000
  C   C118      1.0  0.81721  0.63799  0.35044  1.0000
  C   C119      1.0  0.83893  0.64885  0.33591  1.0000
  C   C120      1.0  0.85031  0.67072  0.33468  1.0000
  C   C121      1.0  0.84051  0.74770  0.33109  1.0000
  C   C122      1.0  0.81864  0.73670  0.32013  1.0000
  C   C123      1.0  0.80736  0.74719  0.31288  1.0000
  C   C124      1.0  0.81746  0.76913  0.31677  1.0000
  C   C125      1.0  0.83924  0.78016  0.32982  1.0000
  C   C126      1.0  0.85058  0.76966  0.33597  1.0000
  C   C127      1.0  0.90595  0.74742  0.32797  1.0000
  C   C128      1.0  0.91790  0.76936  0.33414  1.0000
  C   C129      1.0  0.93972  0.77984  0.32775  1.0000
  C   C130      1.0  0.95042  0.76881  0.31324  1.0000
  C   C131      1.0  0.93852  0.74689  0.30767  1.0000
  C   C132      1.0  0.91677  0.73642  0.31520  1.0000
  H   H61       1.0  0.79157  0.73848  0.30630  1.0000
  H   H62       1.0  0.81054  0.72083  0.31639  1.0000
  H   H63       1.0  0.84718  0.79605  0.33297  1.0000
  H   H64       1.0  0.86633  0.77833  0.34431  1.0000
  H   H65       1.0  0.91086  0.77803  0.34391  1.0000
  H   H66       1.0  0.94770  0.79571  0.33212  1.0000
  H   H67       1.0  0.90895  0.72055  0.31054  1.0000
  H   H68       1.0  0.94558  0.73818  0.30008  1.0000
  H   H69       1.0  0.86598  0.67783  0.32373  1.0000
  H   H70       1.0  0.84678  0.64093  0.32694  1.0000
  H   H71       1.0  0.79149  0.64272  0.37028  1.0000
  H   H72       1.0  0.81058  0.67943  0.36853  1.0000
  C   C133      1.0  0.24750  0.10029  0.33373  1.0000
  N   N25       1.0  0.26861  0.11139  0.33817  1.0000
  C   C134      1.0  0.27952  0.13247  0.34183  1.0000
  N   N26       1.0  0.26837  0.14241  0.33997  1.0000
  C   C135      1.0  0.24729  0.13231  0.33538  1.0000
  N   N27       1.0  0.23724  0.11118  0.33228  1.0000
  C   C136      1.0  0.30164  0.14382  0.34546  1.0000
  C   C137      1.0  0.31353  0.13388  0.33396  1.0000
  C   C138      1.0  0.33540  0.14528  0.33526  1.0000
  C   C139      1.0  0.34624  0.16701  0.34968  1.0000
  C   C140      1.0  0.33438  0.17694  0.36151  1.0000
  C   C141      1.0  0.31256  0.16559  0.35925  1.0000
  C   C142      1.0  0.23673  0.07818  0.32847  1.0000
  C   C143      1.0  0.24768  0.06729  0.31630  1.0000
  C   C144      1.0  0.23716  0.04552  0.30940  1.0000
  C   C145      1.0  0.21523  0.03367  0.31497  1.0000
  C   C146      1.0  0.20425  0.04445  0.32888  1.0000
  C   C147      1.0  0.21479  0.06628  0.33468  1.0000
  C   C148      1.0  0.23650  0.14364  0.33087  1.0000
  C   C149      1.0  0.21454  0.13357  0.33563  1.0000
  C   C150      1.0  0.20403  0.14490  0.32962  1.0000
  C   C151      1.0  0.21507  0.16669  0.31681  1.0000
  C   C152      1.0  0.23701  0.17680  0.31308  1.0000
  C   C153      1.0  0.24750  0.16552  0.32023  1.0000
  H   H73       1.0  0.24584  0.03842  0.30220  1.0000
  H   H74       1.0  0.26354  0.07507  0.31163  1.0000
  H   H75       1.0  0.18838  0.03652  0.33321  1.0000
  H   H76       1.0  0.20614  0.07336  0.34401  1.0000
  H   H77       1.0  0.20587  0.11781  0.34372  1.0000
  H   H78       1.0  0.18814  0.13696  0.33261  1.0000
  H   H79       1.0  0.26337  0.17363  0.31660  1.0000
  H   H80       1.0  0.24572  0.19260  0.30674  1.0000
  H   H81       1.0  0.30477  0.17359  0.36749  1.0000
  H   H82       1.0  0.34147  0.19270  0.36929  1.0000
  H   H83       1.0  0.34333  0.13744  0.32641  1.0000
  H   H84       1.0  0.30642  0.11820  0.32316  1.0000
  C   C154      1.0  0.88379  0.13237  0.33534  1.0000
  N   N28       1.0  0.87282  0.14249  0.33956  1.0000
  C   C155      1.0  0.85173  0.13256  0.34102  1.0000
  N   N29       1.0  0.84154  0.11148  0.33739  1.0000
  C   C156      1.0  0.85155  0.10036  0.33331  1.0000
  N   N30       1.0  0.87270  0.11125  0.33224  1.0000
  C   C157      1.0  0.84094  0.14390  0.34443  1.0000
  C   C158      1.0  0.85178  0.16567  0.35826  1.0000
  C   C159      1.0  0.84128  0.17700  0.36058  1.0000
  C   C160      1.0  0.81949  0.16706  0.34879  1.0000
  C   C161      1.0  0.80862  0.14533  0.33420  1.0000
  C   C162      1.0  0.81911  0.13395  0.33287  1.0000
  C   C163      1.0  0.90592  0.14367  0.33138  1.0000
  C   C164      1.0  0.91688  0.16556  0.32125  1.0000
  C   C165      1.0  0.93865  0.17679  0.31477  1.0000
  C   C166      1.0  0.95044  0.16663  0.31859  1.0000
  C   C167      1.0  0.93961  0.14483  0.33082  1.0000
  C   C168      1.0  0.91776  0.13354  0.33625  1.0000
  C   C169      1.0  0.84020  0.07825  0.32817  1.0000
  C   C170      1.0  0.85027  0.06636  0.33422  1.0000
  C   C171      1.0  0.83897  0.04452  0.32851  1.0000
  C   C172      1.0  0.81722  0.03374  0.31488  1.0000
  C   C173      1.0  0.80712  0.04558  0.30948  1.0000
  C   C174      1.0  0.81837  0.06735  0.31628  1.0000
  H   H85       1.0  0.94579  0.19260  0.30880  1.0000
  H   H86       1.0  0.90916  0.17371  0.31762  1.0000
  H   H87       1.0  0.94751  0.13684  0.33388  1.0000
  H   H88       1.0  0.91062  0.11777  0.34399  1.0000
  H   H89       1.0  0.86600  0.07344  0.34333  1.0000
  H   H90       1.0  0.84692  0.03660  0.33270  1.0000
  H   H91       1.0  0.81027  0.07512  0.31180  1.0000
  H   H92       1.0  0.79134  0.03847  0.30254  1.0000
  H   H93       1.0  0.81056  0.11828  0.32202  1.0000
  H   H94       1.0  0.79285  0.13748  0.32538  1.0000
  H   H95       1.0  0.84994  0.19276  0.36850  1.0000
  H   H96       1.0  0.86756  0.17368  0.36657  1.0000
  C   C175      1.0  0.24785  0.52820  0.32480  1.0000
  N   N31       1.0  0.23746  0.50728  0.31370  1.0000
  C   C176      1.0  0.24737  0.49605  0.30826  1.0000
  N   N32       1.0  0.26853  0.50658  0.31456  1.0000
  C   C177      1.0  0.27960  0.52753  0.32586  1.0000
  N   N33       1.0  0.26885  0.53783  0.33152  1.0000
  C   C178      1.0  0.23577  0.47389  0.30634  1.0000
  C   C179      1.0  0.21390  0.46308  0.31739  1.0000
  C   C180      1.0  0.20257  0.44134  0.32541  1.0000
  C   C181      1.0  0.21262  0.42944  0.32203  1.0000
  C   C182      1.0  0.23431  0.44005  0.30664  1.0000
  C   C183      1.0  0.24569  0.46187  0.29972  1.0000
  C   C184      1.0  0.23750  0.53978  0.33402  1.0000
  C   C185      1.0  0.21847  0.53398  0.29032  1.0000
  C   C186      1.0  0.20939  0.54671  0.29476  1.0000
  C   C187      1.0  0.21861  0.56515  0.34612  1.0000
  C   C188      1.0  0.23715  0.57039  0.39275  1.0000
  C   C189      1.0  0.24652  0.55809  0.38609  1.0000
  C   C190      1.0  0.30153  0.53873  0.33604  1.0000
  C   C191      1.0  0.31090  0.55668  0.39032  1.0000
  C   C192      1.0  0.33257  0.56902  0.39628  1.0000
  C   C193      1.0  0.34581  0.56417  0.34677  1.0000
  C   C194      1.0  0.33650  0.54599  0.29372  1.0000
  C   C195      1.0  0.31468  0.53321  0.28987  1.0000
  H   H97       1.0  0.19611  0.54254  0.25936  1.0000
  H   H98       1.0  0.21164  0.52103  0.25088  1.0000
  H   H99       1.0  0.24474  0.58390  0.42856  1.0000
  H   H100      1.0  0.26019  0.56285  0.41936  1.0000
  H   H101      1.0  0.30203  0.56124  0.42526  1.0000
  H   H102      1.0  0.33851  0.58234  0.43332  1.0000
  H   H103      1.0  0.30848  0.52054  0.24872  1.0000
  H   H104      1.0  0.34555  0.54212  0.25619  1.0000
  H   H105      1.0  0.26144  0.46888  0.29188  1.0000
  H   H106      1.0  0.24221  0.43205  0.30411  1.0000
  H   H107      1.0  0.18683  0.43431  0.33392  1.0000
  H   H108      1.0  0.20589  0.47092  0.32266  1.0000
  C   C196      1.0  0.45690  0.70443  0.32637  1.0000
  N   N34       1.0  0.47783  0.71555  0.31462  1.0000
  C   C197      1.0  0.48828  0.73672  0.30821  1.0000
  N   N35       1.0  0.47698  0.74655  0.31404  1.0000
  C   C198      1.0  0.45608  0.73609  0.32557  1.0000
  N   N36       1.0  0.44654  0.71511  0.33233  1.0000
  C   C199      1.0  0.51043  0.74840  0.30599  1.0000
  C   C200      1.0  0.52252  0.73856  0.29979  1.0000
  C   C201      1.0  0.54434  0.75003  0.30672  1.0000
  C   C202      1.0  0.55486  0.77173  0.32157  1.0000
  C   C203      1.0  0.54289  0.78171  0.32438  1.0000
  C   C204      1.0  0.52115  0.77029  0.31639  1.0000
  C   C205      1.0  0.44576  0.68251  0.33678  1.0000
  C   C206      1.0  0.45105  0.66934  0.28942  1.0000
  C   C207      1.0  0.43822  0.64752  0.29329  1.0000
  C   C208      1.0  0.42020  0.63823  0.34736  1.0000
  C   C209      1.0  0.41562  0.65150  0.39807  1.0000
  C   C210      1.0  0.42801  0.67318  0.39227  1.0000
  C   C211      1.0  0.44442  0.74637  0.33520  1.0000
  C   C212      1.0  0.42601  0.73713  0.38658  1.0000
  C   C213      1.0  0.41363  0.74640  0.39357  1.0000
  C   C214      1.0  0.41893  0.76509  0.34808  1.0000
  C   C215      1.0  0.43748  0.77455  0.29752  1.0000
  C   C216      1.0  0.45027  0.76553  0.29267  1.0000
  H   H109      1.0  0.44192  0.63846  0.25491  1.0000
  H   H110      1.0  0.46358  0.67552  0.24747  1.0000
  H   H111      1.0  0.40242  0.64562  0.43594  1.0000
  H   H112      1.0  0.42361  0.68207  0.42799  1.0000
  H   H113      1.0  0.42121  0.72335  0.41902  1.0000
  H   H114      1.0  0.40004  0.73864  0.42871  1.0000
  H   H115      1.0  0.46331  0.77253  0.25378  1.0000
  H   H116      1.0  0.44168  0.78793  0.26288  1.0000
  H   H117      1.0  0.51326  0.77826  0.32135  1.0000
  H   H118      1.0  0.54986  0.79746  0.33252  1.0000
  H   H119      1.0  0.55239  0.74218  0.30462  1.0000
  H   H120      1.0  0.51557  0.72279  0.29245  1.0000
  C   C217      1.0  0.27890  0.73643  0.32557  1.0000
  N   N37       1.0  0.26841  0.74683  0.31363  1.0000
  C   C218      1.0  0.24727  0.73692  0.30777  1.0000
  N   N38       1.0  0.23661  0.71577  0.31467  1.0000
  C   C219      1.0  0.24646  0.70471  0.32682  1.0000
  N   N39       1.0  0.26750  0.71545  0.33275  1.0000
  C   C220      1.0  0.23674  0.74854  0.30537  1.0000
  C   C221      1.0  0.24782  0.77042  0.31619  1.0000
  C   C222      1.0  0.23741  0.78174  0.32436  1.0000
  C   C223      1.0  0.21547  0.77168  0.32135  1.0000
  C   C224      1.0  0.20436  0.74999  0.30598  1.0000
  C   C225      1.0  0.21480  0.73862  0.29890  1.0000
  C   C226      1.0  0.30081  0.74674  0.33553  1.0000
  C   C227      1.0  0.31416  0.76574  0.29191  1.0000
  C   C228      1.0  0.33596  0.77469  0.29682  1.0000
  C   C229      1.0  0.34502  0.76536  0.34847  1.0000
  C   C230      1.0  0.33159  0.74689  0.39525  1.0000
  C   C231      1.0  0.30994  0.73766  0.38822  1.0000
  C   C232      1.0  0.23575  0.68281  0.33788  1.0000
  C   C233      1.0  0.24435  0.67361  0.39305  1.0000
  C   C234      1.0  0.23515  0.65196  0.39935  1.0000
  C   C235      1.0  0.21720  0.63858  0.34941  1.0000
  C   C236      1.0  0.20825  0.64774  0.29587  1.0000
  C   C237      1.0  0.21714  0.66954  0.29160  1.0000
  H   H121      1.0  0.34516  0.78792  0.26130  1.0000
  H   H122      1.0  0.30815  0.77261  0.25206  1.0000
  H   H123      1.0  0.33736  0.73920  0.43124  1.0000
  H   H124      1.0  0.30092  0.72401  0.42148  1.0000
  H   H125      1.0  0.25773  0.68258  0.42814  1.0000
  H   H126      1.0  0.24263  0.64617  0.43676  1.0000
  H   H127      1.0  0.21069  0.67563  0.24975  1.0000
  H   H128      1.0  0.19542  0.63860  0.25799  1.0000
  H   H129      1.0  0.20604  0.72285  0.29126  1.0000
  H   H130      1.0  0.18846  0.74209  0.30374  1.0000
  H   H131      1.0  0.24613  0.79748  0.33288  1.0000
  H   H132      1.0  0.26367  0.77842  0.32137  1.0000
  C   C238      1.0  0.74233  0.45262  0.32719  1.0000
  N   N40       1.0  0.75214  0.47354  0.31498  1.0000
  C   C239      1.0  0.74144  0.48398  0.30789  1.0000
  N   N41       1.0  0.72030  0.47270  0.31358  1.0000
  C   C240      1.0  0.70984  0.45181  0.32553  1.0000
  N   N42       1.0  0.72128  0.44227  0.33291  1.0000
  C   C241      1.0  0.75193  0.50612  0.30546  1.0000
  C   C242      1.0  0.77387  0.51818  0.29921  1.0000
  C   C243      1.0  0.78426  0.53999  0.30627  1.0000
  C   C244      1.0  0.77310  0.55053  0.32131  1.0000
  C   C245      1.0  0.75116  0.53861  0.32404  1.0000
  C   C246      1.0  0.74079  0.51687  0.31591  1.0000
  C   C247      1.0  0.75307  0.44148  0.33841  1.0000
  C   C248      1.0  0.77152  0.44665  0.29124  1.0000
  C   C249      1.0  0.78039  0.43372  0.29556  1.0000
  C   C250      1.0  0.77154  0.41572  0.34979  1.0000
  C   C251      1.0  0.75374  0.41132  0.40054  1.0000
  C   C252      1.0  0.74459  0.42382  0.39439  1.0000
  C   C253      1.0  0.68792  0.44016  0.33518  1.0000
  C   C254      1.0  0.67876  0.42180  0.38694  1.0000
  C   C255      1.0  0.65711  0.40940  0.39392  1.0000
  C   C256      1.0  0.64370  0.41461  0.34807  1.0000
  C   C257      1.0  0.65278  0.43312  0.29718  1.0000
  C   C258      1.0  0.67458  0.44593  0.29230  1.0000
  H   H133      1.0  0.79312  0.43730  0.25714  1.0000
  H   H134      1.0  0.77791  0.45911  0.24898  1.0000
  H   H135      1.0  0.74633  0.39815  0.43853  1.0000
  H   H136      1.0  0.73130  0.41951  0.42999  1.0000
  H   H137      1.0  0.68776  0.41705  0.41966  1.0000
  H   H138      1.0  0.65131  0.39585  0.42931  1.0000
  H   H139      1.0  0.68061  0.45893  0.25315  1.0000
  H   H140      1.0  0.64359  0.43726  0.26228  1.0000
  H   H141      1.0  0.72494  0.50900  0.32094  1.0000
  H   H142      1.0  0.74240  0.54560  0.33233  1.0000
  H   H143      1.0  0.80015  0.54802  0.30422  1.0000
  H   H144      1.0  0.78266  0.51120  0.29184  1.0000
  C   C259      1.0  0.53250  0.27445  0.32562  1.0000
  N   N43       1.0  0.51159  0.26397  0.31416  1.0000
  C   C260      1.0  0.50034  0.24284  0.30819  1.0000
  N   N44       1.0  0.51083  0.23217  0.31438  1.0000
  C   C261      1.0  0.53176  0.24200  0.32604  1.0000
  N   N45       1.0  0.54208  0.26304  0.33217  1.0000
  C   C262      1.0  0.47819  0.23234  0.30602  1.0000
  C   C263      1.0  0.46742  0.24347  0.31663  1.0000
  C   C264      1.0  0.44568  0.23310  0.32465  1.0000
  C   C265      1.0  0.43375  0.21116  0.32174  1.0000
  C   C266      1.0  0.44431  0.20001  0.30672  1.0000
  C   C267      1.0  0.46612  0.21040  0.29975  1.0000
  C   C268      1.0  0.54411  0.29637  0.33553  1.0000
  C   C269      1.0  0.53838  0.30970  0.29232  1.0000
  C   C270      1.0  0.55120  0.33149  0.29718  1.0000
  C   C271      1.0  0.56965  0.34058  0.34843  1.0000
  C   C272      1.0  0.57479  0.32716  0.39476  1.0000
  C   C273      1.0  0.56239  0.30551  0.38773  1.0000
  C   C274      1.0  0.54295  0.23126  0.33625  1.0000
  C   C275      1.0  0.56083  0.23979  0.39093  1.0000
  C   C276      1.0  0.57320  0.23048  0.39682  1.0000
  C   C277      1.0  0.56845  0.21248  0.34690  1.0000
  C   C278      1.0  0.55032  0.20365  0.29353  1.0000
  C   C279      1.0  0.53751  0.21266  0.28970  1.0000
  H   H145      1.0  0.54711  0.34069  0.26198  1.0000
  H   H146      1.0  0.52544  0.30367  0.25280  1.0000
  H   H147      1.0  0.58830  0.33296  0.43043  1.0000
  H   H148      1.0  0.56709  0.29651  0.42068  1.0000
  H   H149      1.0  0.56534  0.25317  0.42617  1.0000
  H   H150      1.0  0.58649  0.23786  0.43413  1.0000
  H   H151      1.0  0.52489  0.20623  0.24826  1.0000
  H   H152      1.0  0.54651  0.19078  0.25569  1.0000
  H   H153      1.0  0.47310  0.20162  0.29227  1.0000
  H   H154      1.0  0.43629  0.18412  0.30455  1.0000
  H   H155      1.0  0.43869  0.24186  0.33290  1.0000
  H   H156      1.0  0.47529  0.25932  0.32162  1.0000
  C   C280      1.0  0.70887  0.24203  0.32618  1.0000
  N   N46       1.0  0.71997  0.23219  0.31484  1.0000
  C   C281      1.0  0.74113  0.24286  0.30835  1.0000
  N   N47       1.0  0.75099  0.26401  0.31361  1.0000
  C   C282      1.0  0.74056  0.27450  0.32469  1.0000
  N   N48       1.0  0.71957  0.26309  0.33161  1.0000
  C   C283      1.0  0.75278  0.23236  0.30641  1.0000
  C   C284      1.0  0.74290  0.21042  0.30001  1.0000
  C   C285      1.0  0.75433  0.20002  0.30692  1.0000
  C   C286      1.0  0.77603  0.21116  0.32200  1.0000
  C   C287      1.0  0.78603  0.23310  0.32513  1.0000
  C   C288      1.0  0.77466  0.24347  0.31715  1.0000
  C   C289      1.0  0.68695  0.23126  0.33653  1.0000
  C   C290      1.0  0.67380  0.21273  0.28954  1.0000
  C   C291      1.0  0.65197  0.20371  0.29342  1.0000
  C   C292      1.0  0.64267  0.21247  0.34717  1.0000
  C   C293      1.0  0.65592  0.23041  0.39746  1.0000
  C   C294      1.0  0.67760  0.23972  0.39162  1.0000
  C   C295      1.0  0.75088  0.29646  0.33359  1.0000
  C   C296      1.0  0.74173  0.30576  0.38473  1.0000
  C   C297      1.0  0.75111  0.32744  0.39133  1.0000
  C   C298      1.0  0.76980  0.34071  0.34562  1.0000
  C   C299      1.0  0.77912  0.33148  0.29504  1.0000
  C   C300      1.0  0.77001  0.30967  0.29059  1.0000
  H   H157      1.0  0.64293  0.19089  0.25534  1.0000
  H   H158      1.0  0.67999  0.20635  0.24789  1.0000
  H   H159      1.0  0.65001  0.23775  0.43507  1.0000
  H   H160      1.0  0.68648  0.25307  0.42705  1.0000
  H   H161      1.0  0.72798  0.29686  0.41747  1.0000
  H   H162      1.0  0.74346  0.33337  0.42654  1.0000
  H   H163      1.0  0.77695  0.30353  0.25194  1.0000
  H   H164      1.0  0.79251  0.34059  0.26030  1.0000
  H   H165      1.0  0.78264  0.25933  0.32228  1.0000
  H   H166      1.0  0.80178  0.24186  0.33344  1.0000
  H   H167      1.0  0.74646  0.18413  0.30456  1.0000
  H   H168      1.0  0.72714  0.20163  0.29240  1.0000
  C   C301      1.0  0.20129  0.40751  0.33406  1.0000
  C   C302      1.0  0.18445  0.39754  0.39400  1.0000
  C   C303      1.0  0.17372  0.37578  0.40111  1.0000
  C   C304      1.0  0.17983  0.36402  0.34824  1.0000
  H   H169      1.0  0.16176  0.36879  0.44561  1.0000
  H   H170      1.0  0.18008  0.40588  0.43360  1.0000
  C   C305      1.0  0.57678  0.78313  0.33378  1.0000
  C   C306      1.0  0.58669  0.80005  0.39335  1.0000
  C   C307      1.0  0.60844  0.81079  0.40089  1.0000
  C   C308      1.0  0.62025  0.80459  0.34881  1.0000
  H   H171      1.0  0.61539  0.82280  0.44516  1.0000
  H   H172      1.0  0.57831  0.80448  0.43245  1.0000
  C   C309      1.0  0.20488  0.78299  0.33394  1.0000
  C   C310      1.0  0.21175  0.79973  0.39439  1.0000
  C   C311      1.0  0.20071  0.81043  0.40213  1.0000
  C   C312      1.0  0.18283  0.80438  0.34937  1.0000
  H   H173      1.0  0.20567  0.82233  0.44696  1.0000
  H   H174      1.0  0.22447  0.80405  0.43390  1.0000
  C   C313      1.0  0.78364  0.57243  0.33385  1.0000
  C   C314      1.0  0.77669  0.58230  0.39395  1.0000
  C   C315      1.0  0.78772  0.60404  0.40175  1.0000
  C   C316      1.0  0.80566  0.61587  0.34939  1.0000
  H   H175      1.0  0.78270  0.61096  0.44636  1.0000
  H   H176      1.0  0.76393  0.57388  0.43321  1.0000
  C   C317      1.0  0.41184  0.20061  0.33397  1.0000
  C   C318      1.0  0.40191  0.20757  0.39370  1.0000
  C   C319      1.0  0.38016  0.19654  0.40118  1.0000
  C   C320      1.0  0.36836  0.17857  0.34889  1.0000
  H   H177      1.0  0.37320  0.20157  0.44555  1.0000
  H   H178      1.0  0.41028  0.22035  0.43294  1.0000
  C   C321      1.0  0.78740  0.20061  0.33399  1.0000
  C   C322      1.0  0.80431  0.20755  0.39360  1.0000
  C   C323      1.0  0.81506  0.19654  0.40075  1.0000
  C   C324      1.0  0.80890  0.17860  0.34825  1.0000
  H   H179      1.0  0.82706  0.20156  0.44505  1.0000
  H   H180      1.0  0.80872  0.22031  0.43297  1.0000
  N   N49       1.0  0.17685  0.18261  0.35818  1.0000
  N   N50       1.0  0.18695  0.17237  0.35862  1.0000
  N   N51       1.0  0.80168  0.97976  0.35852  1.0000
  N   N52       1.0  0.81178  0.00011  0.35810  1.0000
  N   N53       1.0  0.00446  0.80698  0.35640  1.0000
  N   N54       1.0  0.98412  0.79681  0.35642  1.0000
  N   N55       1.0  0.81177  0.79722  0.35874  1.0000
  N   N56       1.0  0.80153  0.80732  0.35832  1.0000
  N   N57       1.0  0.18708  0.00005  0.35840  1.0000
  N   N58       1.0  0.17685  0.97971  0.35886  1.0000
  N   N59       1.0  0.98416  0.17208  0.36067  1.0000
  N   N60       1.0  0.00450  0.18226  0.36069  1.0000
  N   N61       1.0  0.21304  0.60800  0.42102  1.0000
  N   N62       1.0  0.21341  0.59063  0.42030  1.0000
  N   N63       1.0  0.37661  0.58993  0.41944  1.0000
  N   N64       1.0  0.39420  0.60745  0.41958  1.0000
  N   N65       1.0  0.39302  0.76967  0.42161  1.0000
  N   N66       1.0  0.37550  0.76973  0.42171  1.0000
  N   N67       1.0  0.77511  0.37137  0.42010  1.0000
  N   N68       1.0  0.77554  0.38914  0.42106  1.0000
  N   N69       1.0  0.61324  0.38864  0.42157  1.0000
  N   N70       1.0  0.59570  0.37108  0.42169  1.0000
  N   N71       1.0  0.59429  0.20755  0.41943  1.0000
  N   N72       1.0  0.61186  0.20756  0.41952  1.0000
