data_image0
_chemical_formula_structural       C7H2N2O4CHC7H2N2O4CHC2H2C3H2CHC2H2C3H2CHC7H2N2O4CHC7H2N2O4CHC2H2C3H2CHC2H2C3H2CHC7H2N2O4CHC7H2N2O4CHC7H2N2O4CHC7H2N2O4CHC2H2C3H2CHC2H2C3H2CHC7H2N2O4CHC7H2N2O4CHC2H2C3H2CHC2H2C3H2CHC7H2N2O4CHC7H2N2O4CHC2H2C3H2CHC2H2C3H2CHC7H2N2O4CHC7H2N2O4CHC6H3N3C6H3N3C6H3N3C6H3N3C6H3N3C6H3N3C6H3N3C6H3N3C6H3N3C6H3N3C6H3N3C6H3N3C6H3N3C6H3N3C6H3N3C6H3N3C2H2C3H2CHC2H2C3H2CHC7H2N2O4CHC7H2N2O4CHC2H2C3H2CHC2H2C3H2CHC7H2N2O4CHC7H2N2O4CHC2H2C3H2CHC2H2C3H2CHC2H2C3H2CHC2H2C3H2CHC7H2N2O4CHC7H2N2O4CHC2H2C3H2CHC2H2C3H2CHC7H2N2O4CHC7H2N2O4CHC2H2C3H2CHC2H2C3H2CHC7H2N2O4CHC7H2N2O4CHC2H2C3H2CHC2H2C3H2CH
_chemical_formula_sum              "C432 H240 N96 O96"
_cell_length_a       88.6031
_cell_length_b       69.4782
_cell_length_c       14.9816
_cell_angle_alpha    90
_cell_angle_beta     90
_cell_angle_gamma    90

_space_group_name_H-M_alt    "P 1"
_space_group_IT_number       1

loop_
  _space_group_symop_operation_xyz
  'x, y, z'

loop_
  _atom_site_type_symbol
  _atom_site_label
  _atom_site_symmetry_multiplicity
  _atom_site_fract_x
  _atom_site_fract_y
  _atom_site_fract_z
  _atom_site_occupancy
  C   C1        1.0  0.00582  0.05243  0.30396  1.0000
  C   C2        1.0  0.00356  0.04086  0.22700  1.0000
  C   C3        1.0  0.00146  0.02076  0.23712  1.0000
  C   C4        1.0  0.00182  0.01183  0.32190  1.0000
  C   C5        1.0  0.99993  0.99150  0.33059  1.0000
  C   C6        1.0  0.00930  0.97811  0.28495  1.0000
  C   C7        1.0  0.00662  0.95809  0.29478  1.0000
  H   H1        1.0  0.01344  0.94869  0.26096  1.0000
  H   H2        1.0  0.99962  0.01258  0.18134  1.0000
  N   N1        1.0  0.02145  0.98487  0.23205  1.0000
  N   N2        1.0  0.00331  0.04956  0.14144  1.0000
  O   O1        1.0  0.02015  0.97964  0.15211  1.0000
  O   O2        1.0  0.01355  0.04296  0.09210  1.0000
  O   O3        1.0  0.03394  0.97907  0.26136  1.0000
  O   O4        1.0  0.99081  0.04711  0.10350  1.0000
  C   C8        1.0  0.00869  0.07195  0.29661  1.0000
  H   H3        1.0  0.01735  0.07616  0.25913  1.0000
  C   C9        1.0  0.50584  0.55206  0.30371  1.0000
  C   C10       1.0  0.50350  0.54051  0.22677  1.0000
  C   C11       1.0  0.50139  0.52041  0.23690  1.0000
  C   C12       1.0  0.50181  0.51148  0.32166  1.0000
  C   C13       1.0  0.49991  0.49116  0.33035  1.0000
  C   C14       1.0  0.50927  0.47777  0.28461  1.0000
  C   C15       1.0  0.50660  0.45776  0.29450  1.0000
  H   H4        1.0  0.51340  0.44836  0.26060  1.0000
  H   H5        1.0  0.49949  0.51224  0.18117  1.0000
  N   N3        1.0  0.52140  0.48454  0.23155  1.0000
  N   N4        1.0  0.50317  0.54923  0.14125  1.0000
  O   O5        1.0  0.52007  0.47931  0.15163  1.0000
  O   O6        1.0  0.51335  0.54262  0.09154  1.0000
  O   O7        1.0  0.53390  0.47874  0.26069  1.0000
  O   O8        1.0  0.49063  0.54680  0.10372  1.0000
  C   C16       1.0  0.50869  0.57158  0.29638  1.0000
  H   H6        1.0  0.51725  0.57583  0.25819  1.0000
  C   C17       1.0  0.09466  0.20525  0.27825  1.0000
  C   C18       1.0  0.10632  0.21879  0.28927  1.0000
  H   H7        1.0  0.09038  0.20300  0.21563  1.0000
  H   H8        1.0  0.11010  0.22608  0.23420  1.0000
  C   C19       1.0  0.05183  0.15562  0.32116  1.0000
  C   C20       1.0  0.06568  0.15327  0.27547  1.0000
  C   C21       1.0  0.07750  0.16660  0.28553  1.0000
  H   H9        1.0  0.06736  0.14167  0.23441  1.0000
  H   H10       1.0  0.08740  0.16419  0.25212  1.0000
  C   C22       1.0  0.04046  0.14188  0.31186  1.0000
  H   H11       1.0  0.04309  0.12913  0.28600  1.0000
  C   C23       1.0  0.90688  0.79679  0.28235  1.0000
  C   C24       1.0  0.89519  0.78328  0.29285  1.0000
  H   H12       1.0  0.91106  0.79926  0.21970  1.0000
  H   H13       1.0  0.89126  0.77625  0.23739  1.0000
  C   C25       1.0  0.94957  0.84648  0.32620  1.0000
  C   C26       1.0  0.93565  0.84885  0.28129  1.0000
  C   C27       1.0  0.92391  0.83540  0.29125  1.0000
  H   H14       1.0  0.93386  0.86052  0.24087  1.0000
  H   H15       1.0  0.91395  0.83783  0.25843  1.0000
  C   C28       1.0  0.96086  0.86032  0.31690  1.0000
  H   H16       1.0  0.95815  0.87306  0.29117  1.0000
  C   C29       1.0  0.88880  0.22332  0.29221  1.0000
  C   C30       1.0  0.89523  0.21438  0.21585  1.0000
  C   C31       1.0  0.90676  0.20046  0.22711  1.0000
  C   C32       1.0  0.91231  0.19549  0.31251  1.0000
  C   C33       1.0  0.92461  0.18237  0.32196  1.0000
  C   C34       1.0  0.93879  0.18562  0.28021  1.0000
  C   C35       1.0  0.95051  0.17189  0.29032  1.0000
  H   H17       1.0  0.96060  0.17443  0.25917  1.0000
  H   H18       1.0  0.91132  0.19411  0.17164  1.0000
  N   N5        1.0  0.94121  0.20275  0.23090  1.0000
  N   N6        1.0  0.89015  0.21957  0.12941  1.0000
  O   O9        1.0  0.94451  0.19921  0.15096  1.0000
  O   O10       1.0  0.90066  0.22653  0.08316  1.0000
  O   O11       1.0  0.95155  0.21279  0.26453  1.0000
  O   O12       1.0  0.88466  0.20538  0.08876  1.0000
  C   C36       1.0  0.87886  0.23863  0.28326  1.0000
  H   H19       1.0  0.88156  0.24893  0.23989  1.0000
  C   C37       1.0  0.11199  0.77891  0.28932  1.0000
  C   C38       1.0  0.10558  0.78765  0.21245  1.0000
  C   C39       1.0  0.09413  0.80171  0.22299  1.0000
  C   C40       1.0  0.08869  0.80701  0.30818  1.0000
  C   C41       1.0  0.07651  0.82032  0.31714  1.0000
  C   C42       1.0  0.06226  0.81710  0.27617  1.0000
  C   C43       1.0  0.05063  0.83094  0.28625  1.0000
  H   H20       1.0  0.04048  0.82842  0.25580  1.0000
  H   H21       1.0  0.08958  0.80793  0.16719  1.0000
  N   N7        1.0  0.05968  0.79988  0.22783  1.0000
  N   N8        1.0  0.11062  0.78214  0.12635  1.0000
  O   O13       1.0  0.05629  0.80326  0.14789  1.0000
  O   O14       1.0  0.10007  0.77514  0.08062  1.0000
  O   O15       1.0  0.04934  0.79000  0.26247  1.0000
  O   O16       1.0  0.11617  0.79616  0.08477  1.0000
  C   C44       1.0  0.12199  0.76367  0.28147  1.0000
  H   H22       1.0  0.11922  0.75293  0.24059  1.0000
  C   C45       1.0  0.59418  0.70546  0.27715  1.0000
  C   C46       1.0  0.60581  0.71903  0.28802  1.0000
  H   H23       1.0  0.58988  0.70319  0.21458  1.0000
  H   H24       1.0  0.60958  0.72633  0.23293  1.0000
  C   C47       1.0  0.55166  0.65544  0.32068  1.0000
  C   C48       1.0  0.56549  0.65322  0.27472  1.0000
  C   C49       1.0  0.57723  0.66668  0.28458  1.0000
  H   H25       1.0  0.56722  0.64165  0.23362  1.0000
  H   H26       1.0  0.58713  0.66436  0.25101  1.0000
  C   C50       1.0  0.54037  0.64160  0.31158  1.0000
  H   H27       1.0  0.54305  0.62885  0.28592  1.0000
  C   C51       1.0  0.40690  0.29661  0.27885  1.0000
  C   C52       1.0  0.39516  0.28316  0.28934  1.0000
  H   H28       1.0  0.41119  0.29894  0.21632  1.0000
  H   H29       1.0  0.39131  0.27602  0.23399  1.0000
  C   C53       1.0  0.44964  0.34622  0.32351  1.0000
  C   C54       1.0  0.43580  0.34860  0.27783  1.0000
  C   C55       1.0  0.42401  0.33521  0.28744  1.0000
  H   H30       1.0  0.43409  0.36025  0.23713  1.0000
  H   H31       1.0  0.41410  0.33764  0.25410  1.0000
  C   C56       1.0  0.46097  0.36002  0.31459  1.0000
  H   H32       1.0  0.45834  0.37273  0.28831  1.0000
  C   C57       1.0  0.38927  0.72346  0.29434  1.0000
  C   C58       1.0  0.39550  0.71435  0.21786  1.0000
  C   C59       1.0  0.40694  0.70031  0.22892  1.0000
  C   C60       1.0  0.41256  0.69539  0.31419  1.0000
  C   C61       1.0  0.42477  0.68215  0.32339  1.0000
  C   C62       1.0  0.43893  0.68526  0.28112  1.0000
  C   C63       1.0  0.45057  0.67143  0.29098  1.0000
  H   H33       1.0  0.46064  0.67385  0.25945  1.0000
  H   H34       1.0  0.41137  0.69384  0.17339  1.0000
  N   N9        1.0  0.44140  0.70234  0.23155  1.0000
  N   N10       1.0  0.39030  0.71948  0.13160  1.0000
  O   O17       1.0  0.44460  0.69874  0.15153  1.0000
  O   O18       1.0  0.40076  0.72624  0.08446  1.0000
  O   O19       1.0  0.45183  0.71230  0.26473  1.0000
  O   O20       1.0  0.38463  0.70530  0.09179  1.0000
  C   C64       1.0  0.37931  0.73874  0.28563  1.0000
  H   H35       1.0  0.38198  0.74914  0.24268  1.0000
  C   C65       1.0  0.61219  0.27884  0.29293  1.0000
  C   C66       1.0  0.60590  0.28777  0.21614  1.0000
  C   C67       1.0  0.59444  0.30180  0.22673  1.0000
  C   C68       1.0  0.58884  0.30689  0.31185  1.0000
  C   C69       1.0  0.57663  0.32014  0.32067  1.0000
  C   C70       1.0  0.56246  0.31696  0.27876  1.0000
  C   C71       1.0  0.55080  0.33077  0.28852  1.0000
  H   H36       1.0  0.54070  0.32827  0.25736  1.0000
  H   H37       1.0  0.58998  0.30815  0.17097  1.0000
  N   N11       1.0  0.55998  0.29980  0.22976  1.0000
  N   N12       1.0  0.61108  0.28249  0.13003  1.0000
  O   O21       1.0  0.55672  0.30328  0.14971  1.0000
  O   O22       1.0  0.60062  0.27560  0.08332  1.0000
  O   O23       1.0  0.54958  0.28986  0.26346  1.0000
  O   O24       1.0  0.61670  0.29661  0.08952  1.0000
  C   C72       1.0  0.62220  0.26360  0.28473  1.0000
  H   H38       1.0  0.61959  0.25316  0.24188  1.0000
  C   C73       1.0  0.38373  0.06775  0.28493  1.0000
  C   C74       1.0  0.38139  0.08029  0.21119  1.0000
  C   C75       1.0  0.37609  0.09924  0.22644  1.0000
  C   C76       1.0  0.37311  0.10608  0.31345  1.0000
  C   C77       1.0  0.36983  0.12590  0.32816  1.0000
  C   C78       1.0  0.35762  0.13547  0.28557  1.0000
  C   C79       1.0  0.35571  0.15554  0.29826  1.0000
  H   H39       1.0  0.34692  0.16221  0.26658  1.0000
  H   H40       1.0  0.37517  0.10842  0.17325  1.0000
  N   N13       1.0  0.34739  0.12477  0.23243  1.0000
  N   N14       1.0  0.38474  0.07395  0.12341  1.0000
  O   O25       1.0  0.34715  0.13078  0.15330  1.0000
  O   O26       1.0  0.37326  0.07442  0.07425  1.0000
  O   O27       1.0  0.33423  0.12549  0.26344  1.0000
  O   O28       1.0  0.39495  0.08395  0.08809  1.0000
  C   C80       1.0  0.39120  0.05031  0.27404  1.0000
  H   H41       1.0  0.39919  0.04954  0.22741  1.0000
  C   C81       1.0  0.61716  0.93494  0.28388  1.0000
  C   C82       1.0  0.61926  0.92232  0.21013  1.0000
  C   C83       1.0  0.62443  0.90330  0.22529  1.0000
  C   C84       1.0  0.62746  0.89645  0.31223  1.0000
  C   C85       1.0  0.63066  0.87661  0.32688  1.0000
  C   C86       1.0  0.64282  0.86699  0.28420  1.0000
  C   C87       1.0  0.64471  0.84691  0.29708  1.0000
  H   H42       1.0  0.65347  0.84020  0.26529  1.0000
  H   H43       1.0  0.62519  0.89409  0.17214  1.0000
  N   N15       1.0  0.65305  0.87762  0.23082  1.0000
  N   N16       1.0  0.61582  0.92866  0.12249  1.0000
  O   O29       1.0  0.65325  0.87159  0.15174  1.0000
  O   O30       1.0  0.62721  0.92799  0.07264  1.0000
  O   O31       1.0  0.66622  0.87689  0.26166  1.0000
  O   O32       1.0  0.60546  0.91879  0.08794  1.0000
  C   C88       1.0  0.60980  0.95245  0.27317  1.0000
  H   H44       1.0  0.60161  0.95319  0.22772  1.0000
  C   C89       1.0  0.62564  0.09310  0.28008  1.0000
  C   C90       1.0  0.62040  0.07422  0.29298  1.0000
  H   H45       1.0  0.62752  0.09782  0.21629  1.0000
  H   H46       1.0  0.61840  0.06594  0.23766  1.0000
  C   C91       1.0  0.63518  0.16609  0.31724  1.0000
  C   C92       1.0  0.62318  0.15638  0.27432  1.0000
  C   C93       1.0  0.62109  0.13649  0.28523  1.0000
  H   H47       1.0  0.61564  0.16376  0.23538  1.0000
  H   H48       1.0  0.61200  0.13018  0.25481  1.0000
  C   C94       1.0  0.63662  0.18593  0.30693  1.0000
  H   H49       1.0  0.62860  0.19305  0.27412  1.0000
  C   C95       1.0  0.37551  0.90947  0.28123  1.0000
  C   C96       1.0  0.38058  0.92843  0.29393  1.0000
  H   H50       1.0  0.37354  0.90474  0.21755  1.0000
  H   H51       1.0  0.38237  0.93677  0.23856  1.0000
  C   C97       1.0  0.36647  0.83638  0.31829  1.0000
  C   C98       1.0  0.37837  0.84618  0.27490  1.0000
  C   C99       1.0  0.38039  0.86608  0.28589  1.0000
  H   H52       1.0  0.38587  0.83887  0.23542  1.0000
  H   H53       1.0  0.38941  0.87248  0.25501  1.0000
  C   C100      1.0  0.36509  0.81654  0.30789  1.0000
  H   H54       1.0  0.37322  0.80942  0.27607  1.0000
  C   C101      1.0  0.88369  0.56814  0.28379  1.0000
  C   C102      1.0  0.88135  0.58066  0.20997  1.0000
  C   C103      1.0  0.87603  0.59960  0.22513  1.0000
  C   C104      1.0  0.87301  0.60644  0.31210  1.0000
  C   C105      1.0  0.86974  0.62626  0.32678  1.0000
  C   C106      1.0  0.85753  0.63582  0.28420  1.0000
  C   C107      1.0  0.85561  0.65589  0.29700  1.0000
  H   H55       1.0  0.84680  0.66256  0.26537  1.0000
  H   H56       1.0  0.87511  0.60877  0.17191  1.0000
  N   N17       1.0  0.84731  0.62512  0.23099  1.0000
  N   N18       1.0  0.88472  0.57431  0.12224  1.0000
  O   O33       1.0  0.84708  0.63114  0.15187  1.0000
  O   O34       1.0  0.87324  0.57475  0.07301  1.0000
  O   O35       1.0  0.83415  0.62582  0.26195  1.0000
  O   O36       1.0  0.89492  0.58432  0.08695  1.0000
  C   C108      1.0  0.89116  0.55071  0.27302  1.0000
  H   H57       1.0  0.89914  0.54992  0.22630  1.0000
  C   C109      1.0  0.11691  0.43570  0.28328  1.0000
  C   C110      1.0  0.11895  0.42302  0.20970  1.0000
  C   C111      1.0  0.12393  0.40394  0.22520  1.0000
  C   C112      1.0  0.12683  0.39710  0.31230  1.0000
  C   C113      1.0  0.12987  0.37724  0.32720  1.0000
  C   C114      1.0  0.14202  0.36751  0.28498  1.0000
  C   C115      1.0  0.14372  0.34741  0.29769  1.0000
  H   H58       1.0  0.15245  0.34060  0.26593  1.0000
  H   H59       1.0  0.12465  0.39469  0.17217  1.0000
  N   N19       1.0  0.15238  0.37803  0.23204  1.0000
  N   N20       1.0  0.11563  0.42937  0.12189  1.0000
  O   O37       1.0  0.15261  0.37202  0.15291  1.0000
  O   O38       1.0  0.12705  0.42850  0.07234  1.0000
  O   O39       1.0  0.16552  0.37710  0.26333  1.0000
  O   O40       1.0  0.10521  0.41964  0.08718  1.0000
  C   C116      1.0  0.10968  0.45329  0.27225  1.0000
  H   H60       1.0  0.10155  0.45412  0.22643  1.0000
  C   C117      1.0  0.12567  0.59369  0.28163  1.0000
  C   C118      1.0  0.12038  0.57483  0.29441  1.0000
  H   H61       1.0  0.12756  0.59842  0.21788  1.0000
  H   H62       1.0  0.11837  0.56657  0.23903  1.0000
  C   C119      1.0  0.13530  0.66660  0.31861  1.0000
  C   C120      1.0  0.12328  0.65693  0.27586  1.0000
  C   C121      1.0  0.12115  0.63705  0.28694  1.0000
  H   H63       1.0  0.11574  0.66431  0.23688  1.0000
  H   H64       1.0  0.11204  0.63076  0.25659  1.0000
  C   C122      1.0  0.13679  0.68643  0.30791  1.0000
  H   H65       1.0  0.12883  0.69353  0.27454  1.0000
  C   C123      1.0  0.87578  0.40995  0.28206  1.0000
  C   C124      1.0  0.88070  0.42896  0.29491  1.0000
  H   H66       1.0  0.87388  0.40520  0.21834  1.0000
  H   H67       1.0  0.88245  0.43733  0.23958  1.0000
  C   C125      1.0  0.86756  0.33678  0.31942  1.0000
  C   C126      1.0  0.87939  0.34673  0.27624  1.0000
  C   C127      1.0  0.88116  0.36667  0.28699  1.0000
  H   H68       1.0  0.88701  0.33952  0.23717  1.0000
  H   H69       1.0  0.89014  0.37322  0.25638  1.0000
  C   C128      1.0  0.86644  0.31692  0.30990  1.0000
  H   H70       1.0  0.87517  0.30967  0.28503  1.0000
  C   C129      1.0  0.46050  0.99397  0.29538  1.0000
  C   C130      1.0  0.47035  0.99315  0.22065  1.0000
  C   C131      1.0  0.48613  0.99442  0.23448  1.0000
  C   C132      1.0  0.49229  0.99642  0.32096  1.0000
  C   C133      1.0  0.50818  0.99605  0.33411  1.0000
  C   C134      1.0  0.51799  0.00954  0.29287  1.0000
  C   C135      1.0  0.53378  0.00772  0.30520  1.0000
  H   H71       1.0  0.54070  0.01751  0.27467  1.0000
  H   H72       1.0  0.49318  0.99327  0.18061  1.0000
  N   N21       1.0  0.51186  0.02479  0.24162  1.0000
  N   N22       1.0  0.46432  0.99098  0.13358  1.0000
  O   O41       1.0  0.51646  0.02428  0.16231  1.0000
  O   O42       1.0  0.46890  0.97575  0.09724  1.0000
  O   O43       1.0  0.51514  0.04090  0.27445  1.0000
  O   O44       1.0  0.46774  0.00498  0.08451  1.0000
  C   C136      1.0  0.44512  0.99132  0.28563  1.0000
  H   H73       1.0  0.44148  0.98078  0.24613  1.0000
  C   C137      1.0  0.96044  0.49423  0.29513  1.0000
  C   C138      1.0  0.97029  0.49335  0.22043  1.0000
  C   C139      1.0  0.98606  0.49462  0.23430  1.0000
  C   C140      1.0  0.99221  0.49666  0.32080  1.0000
  C   C141      1.0  0.00809  0.49636  0.33397  1.0000
  C   C142      1.0  0.01786  0.50992  0.29282  1.0000
  C   C143      1.0  0.03365  0.50821  0.30535  1.0000
  H   H74       1.0  0.04053  0.51804  0.27487  1.0000
  H   H75       1.0  0.99312  0.49344  0.18047  1.0000
  N   N23       1.0  0.01168  0.52512  0.24145  1.0000
  N   N24       1.0  0.96427  0.49114  0.13337  1.0000
  O   O45       1.0  0.01631  0.52462  0.16219  1.0000
  O   O46       1.0  0.96883  0.47589  0.09721  1.0000
  O   O47       1.0  0.01489  0.54126  0.27425  1.0000
  O   O48       1.0  0.96770  0.50512  0.08416  1.0000
  C   C144      1.0  0.94505  0.49164  0.28535  1.0000
  H   H76       1.0  0.94139  0.48106  0.24608  1.0000
  C   C145      1.0  0.26791  0.24885  0.27520  1.0000
  C   C146      1.0  0.28346  0.24581  0.28768  1.0000
  H   H77       1.0  0.26392  0.25087  0.21174  1.0000
  H   H78       1.0  0.29027  0.24537  0.23245  1.0000
  C   C147      1.0  0.20976  0.24955  0.31686  1.0000
  C   C148      1.0  0.21891  0.23618  0.27074  1.0000
  C   C149      1.0  0.23470  0.23641  0.27985  1.0000
  H   H79       1.0  0.21415  0.22586  0.23084  1.0000
  H   H80       1.0  0.24084  0.22609  0.24723  1.0000
  C   C150      1.0  0.19409  0.24852  0.30919  1.0000
  H   H81       1.0  0.18942  0.23698  0.28120  1.0000
  C   C151      1.0  0.73259  0.75211  0.27688  1.0000
  C   C152      1.0  0.71715  0.75592  0.28923  1.0000
  H   H82       1.0  0.73638  0.74891  0.21404  1.0000
  H   H83       1.0  0.71024  0.75574  0.23442  1.0000
  C   C153      1.0  0.79019  0.74523  0.30728  1.0000
  C   C154      1.0  0.78187  0.75864  0.25668  1.0000
  C   C155      1.0  0.76632  0.76106  0.27164  1.0000
  H   H84       1.0  0.78706  0.76676  0.20855  1.0000
  H   H85       1.0  0.76068  0.77114  0.23460  1.0000
  C   C156      1.0  0.80520  0.74182  0.28868  1.0000
  H   H86       1.0  0.80788  0.73651  0.22902  1.0000
  C   C157      1.0  0.71176  0.24156  0.29639  1.0000
  C   C158      1.0  0.72179  0.24123  0.22232  1.0000
  C   C159      1.0  0.73736  0.24479  0.23609  1.0000
  C   C160      1.0  0.74324  0.24862  0.32191  1.0000
  C   C161      1.0  0.75910  0.25071  0.33503  1.0000
  C   C162      1.0  0.76777  0.26459  0.28798  1.0000
  C   C163      1.0  0.78361  0.26531  0.30096  1.0000
  H   H87       1.0  0.78964  0.27553  0.26702  1.0000
  H   H88       1.0  0.74453  0.24389  0.18269  1.0000
  N   N25       1.0  0.76046  0.27787  0.23062  1.0000
  N   N26       1.0  0.71619  0.23714  0.13568  1.0000
  O   O49       1.0  0.76522  0.27653  0.15183  1.0000
  O   O50       1.0  0.72208  0.22220  0.10378  1.0000
  O   O51       1.0  0.76221  0.29490  0.25676  1.0000
  O   O52       1.0  0.71852  0.25090  0.08295  1.0000
  C   C164      1.0  0.69680  0.23589  0.28702  1.0000
  H   H89       1.0  0.69457  0.22510  0.24530  1.0000
  C   C165      1.0  0.28972  0.76100  0.29618  1.0000
  C   C166      1.0  0.27961  0.76167  0.22249  1.0000
  C   C167      1.0  0.26411  0.75764  0.23606  1.0000
  C   C168      1.0  0.25834  0.75292  0.32124  1.0000
  C   C169      1.0  0.24258  0.74972  0.33415  1.0000
  C   C170      1.0  0.23440  0.73589  0.28354  1.0000
  C   C171      1.0  0.21872  0.73353  0.29870  1.0000
  H   H90       1.0  0.21299  0.72323  0.26334  1.0000
  H   H91       1.0  0.25689  0.75872  0.18293  1.0000
  N   N27       1.0  0.24208  0.72401  0.22152  1.0000
  N   N28       1.0  0.28509  0.76640  0.13630  1.0000
  O   O53       1.0  0.23687  0.72593  0.14400  1.0000
  O   O54       1.0  0.27897  0.78139  0.10643  1.0000
  O   O55       1.0  0.24132  0.70656  0.24312  1.0000
  O   O56       1.0  0.28294  0.75291  0.08188  1.0000
  C   C172      1.0  0.30463  0.76687  0.28711  1.0000
  H   H92       1.0  0.30678  0.77789  0.24660  1.0000
  C   C173      1.0  0.01418  0.13450  0.33171  1.0000
  C   C174      1.0  0.01415  0.11413  0.33216  1.0000
  C   C175      1.0  0.00047  0.10362  0.33177  1.0000
  C   C176      1.0  0.98670  0.11381  0.33369  1.0000
  C   C177      1.0  0.98638  0.13418  0.33431  1.0000
  C   C178      1.0  0.00022  0.14427  0.33298  1.0000
  H   H93       1.0  0.97679  0.10626  0.33292  1.0000
  H   H94       1.0  0.00012  0.15902  0.33310  1.0000
  H   H95       1.0  0.02416  0.10685  0.33434  1.0000
  N   N29       1.0  0.02666  0.14520  0.33393  1.0000
  N   N30       1.0  0.99988  0.08445  0.33256  1.0000
  N   N31       1.0  0.97380  0.14468  0.33250  1.0000
  C   C179      1.0  0.98709  0.86794  0.33625  1.0000
  C   C180      1.0  0.98700  0.88830  0.33709  1.0000
  C   C181      1.0  0.00061  0.89897  0.33608  1.0000
  C   C182      1.0  0.01443  0.88889  0.33340  1.0000
  C   C183      1.0  0.01487  0.86852  0.33442  1.0000
  C   C184      1.0  0.00111  0.85830  0.33578  1.0000
  H   H96       1.0  0.02430  0.89652  0.33058  1.0000
  H   H97       1.0  0.00129  0.84354  0.33571  1.0000
  H   H98       1.0  0.97692  0.89541  0.33804  1.0000
  N   N32       1.0  0.97468  0.85711  0.33870  1.0000
  N   N33       1.0  0.00121  0.91816  0.33425  1.0000
  N   N34       1.0  0.02749  0.85813  0.33095  1.0000
  C   C185      1.0  0.51411  0.63411  0.33170  1.0000
  C   C186      1.0  0.51412  0.61374  0.33210  1.0000
  C   C187      1.0  0.50046  0.60320  0.33207  1.0000
  C   C188      1.0  0.48667  0.61335  0.33440  1.0000
  C   C189      1.0  0.48633  0.63371  0.33503  1.0000
  C   C190      1.0  0.50014  0.64384  0.33336  1.0000
  H   H99       1.0  0.47677  0.60577  0.33391  1.0000
  H   H100      1.0  0.50002  0.65860  0.33349  1.0000
  H   H101      1.0  0.52415  0.60649  0.33398  1.0000
  N   N35       1.0  0.52656  0.64485  0.33364  1.0000
  N   N36       1.0  0.49990  0.58403  0.33289  1.0000
  N   N37       1.0  0.47375  0.64418  0.33348  1.0000
  C   C191      1.0  0.48716  0.36763  0.33574  1.0000
  C   C192      1.0  0.48705  0.38800  0.33659  1.0000
  C   C193      1.0  0.50066  0.39868  0.33630  1.0000
  C   C194      1.0  0.51449  0.38860  0.33433  1.0000
  C   C195      1.0  0.51493  0.36824  0.33538  1.0000
  C   C196      1.0  0.50118  0.35801  0.33601  1.0000
  H   H102      1.0  0.52436  0.39624  0.33198  1.0000
  H   H103      1.0  0.50136  0.34325  0.33593  1.0000
  H   H104      1.0  0.47697  0.39511  0.33703  1.0000
  N   N38       1.0  0.47474  0.35682  0.33756  1.0000
  N   N39       1.0  0.50125  0.41785  0.33444  1.0000
  N   N40       1.0  0.52756  0.35786  0.33250  1.0000
  C   C197      1.0  0.42065  0.00155  0.32600  1.0000
  C   C198      1.0  0.41260  0.01900  0.32579  1.0000
  C   C199      1.0  0.39663  0.01920  0.32565  1.0000
  C   C200      1.0  0.38872  0.00160  0.33140  1.0000
  C   C201      1.0  0.39660  0.98396  0.33558  1.0000
  C   C202      1.0  0.41254  0.98410  0.33105  1.0000
  H   H105      1.0  0.37717  0.00163  0.33299  1.0000
  H   H106      1.0  0.41832  0.97135  0.33256  1.0000
  H   H107      1.0  0.41844  0.03173  0.32453  1.0000
  N   N41       1.0  0.43561  0.00225  0.32602  1.0000
  N   N42       1.0  0.38906  0.03573  0.32561  1.0000
  N   N43       1.0  0.38905  0.96742  0.33802  1.0000
  C   C203      1.0  0.58030  0.00093  0.33300  1.0000
  C   C204      1.0  0.58851  0.98355  0.32852  1.0000
  C   C205      1.0  0.60446  0.98351  0.32599  1.0000
  C   C206      1.0  0.61225  0.00120  0.33134  1.0000
  C   C207      1.0  0.60424  0.01875  0.33641  1.0000
  C   C208      1.0  0.58828  0.01843  0.33451  1.0000
  H   H108      1.0  0.62380  0.00131  0.33120  1.0000
  H   H109      1.0  0.58239  0.03112  0.33549  1.0000
  H   H110      1.0  0.58281  0.97075  0.32618  1.0000
  N   N44       1.0  0.56532  0.00159  0.33182  1.0000
  N   N45       1.0  0.61208  0.96702  0.32463  1.0000
  N   N46       1.0  0.61175  0.03532  0.33762  1.0000
  C   C209      1.0  0.92062  0.50199  0.32560  1.0000
  C   C210      1.0  0.91259  0.51945  0.32514  1.0000
  C   C211      1.0  0.89662  0.51967  0.32517  1.0000
  C   C212      1.0  0.88870  0.50208  0.33134  1.0000
  C   C213      1.0  0.89657  0.48445  0.33579  1.0000
  C   C214      1.0  0.91250  0.48456  0.33109  1.0000
  H   H111      1.0  0.87714  0.50212  0.33302  1.0000
  H   H112      1.0  0.91827  0.47180  0.33282  1.0000
  H   H113      1.0  0.91843  0.53217  0.32357  1.0000
  N   N47       1.0  0.93558  0.50265  0.32553  1.0000
  N   N48       1.0  0.88905  0.53618  0.32490  1.0000
  N   N49       1.0  0.88902  0.46792  0.33852  1.0000
  C   C215      1.0  0.08017  0.50165  0.33324  1.0000
  C   C216      1.0  0.08838  0.48428  0.32835  1.0000
  C   C217      1.0  0.10433  0.48425  0.32579  1.0000
  C   C218      1.0  0.11211  0.50193  0.33153  1.0000
  C   C219      1.0  0.10411  0.51946  0.33696  1.0000
  C   C220      1.0  0.08814  0.51915  0.33511  1.0000
  H   H114      1.0  0.12367  0.50203  0.33142  1.0000
  H   H115      1.0  0.08225  0.53184  0.33637  1.0000
  H   H116      1.0  0.08268  0.47148  0.32575  1.0000
  N   N50       1.0  0.06519  0.50226  0.33204  1.0000
  N   N51       1.0  0.11192  0.46775  0.32434  1.0000
  N   N52       1.0  0.11162  0.53601  0.33847  1.0000
  C   C221      1.0  0.15026  0.28895  0.34103  1.0000
  C   C222      1.0  0.16573  0.28431  0.33902  1.0000
  C   C223      1.0  0.17065  0.26502  0.33564  1.0000
  C   C224      1.0  0.15976  0.25010  0.33569  1.0000
  C   C225      1.0  0.14418  0.25435  0.33938  1.0000
  C   C226      1.0  0.13958  0.27384  0.34007  1.0000
  H   H117      1.0  0.16318  0.23603  0.33477  1.0000
  H   H118      1.0  0.12831  0.27701  0.33829  1.0000
  H   H119      1.0  0.17355  0.29519  0.33895  1.0000
  N   N53       1.0  0.14666  0.30750  0.33914  1.0000
  N   N54       1.0  0.18548  0.26230  0.33526  1.0000
  N   N55       1.0  0.13416  0.24003  0.33754  1.0000
  C   C227      1.0  0.84955  0.71483  0.33746  1.0000
  C   C228      1.0  0.83421  0.72009  0.33902  1.0000
  C   C229      1.0  0.82983  0.73961  0.34264  1.0000
  C   C230      1.0  0.84103  0.75406  0.34579  1.0000
  C   C231      1.0  0.85650  0.74915  0.34374  1.0000
  C   C232      1.0  0.86060  0.72951  0.33794  1.0000
  H   H120      1.0  0.83789  0.76822  0.34964  1.0000
  H   H121      1.0  0.87176  0.72590  0.33326  1.0000
  H   H122      1.0  0.82608  0.70958  0.33891  1.0000
  N   N56       1.0  0.85278  0.69617  0.33328  1.0000
  N   N57       1.0  0.81532  0.74406  0.34932  1.0000
  N   N58       1.0  0.86684  0.76308  0.34320  1.0000
  C   C233      1.0  0.85072  0.28918  0.32728  1.0000
  C   C234      1.0  0.83524  0.28470  0.32471  1.0000
  C   C235      1.0  0.83025  0.26545  0.32551  1.0000
  C   C236      1.0  0.84099  0.25039  0.32698  1.0000
  C   C237      1.0  0.85662  0.25450  0.32742  1.0000
  C   C238      1.0  0.86131  0.27397  0.32977  1.0000
  H   H123      1.0  0.83740  0.23639  0.32575  1.0000
  H   H124      1.0  0.87257  0.27706  0.33425  1.0000
  H   H125      1.0  0.82746  0.29563  0.32331  1.0000
  N   N59       1.0  0.85435  0.30770  0.33035  1.0000
  N   N60       1.0  0.81549  0.26265  0.32124  1.0000
  N   N61       1.0  0.86657  0.24008  0.32877  1.0000
  C   C239      1.0  0.15154  0.71454  0.33336  1.0000
  C   C240      1.0  0.16691  0.71970  0.33226  1.0000
  C   C241      1.0  0.17136  0.73920  0.32824  1.0000
  C   C242      1.0  0.16022  0.75370  0.32417  1.0000
  C   C243      1.0  0.14474  0.74891  0.32585  1.0000
  C   C244      1.0  0.14055  0.72930  0.33208  1.0000
  H   H126      1.0  0.16343  0.76783  0.31991  1.0000
  H   H127      1.0  0.12937  0.72576  0.33635  1.0000
  H   H128      1.0  0.17499  0.70914  0.33282  1.0000
  N   N62       1.0  0.14822  0.69590  0.33744  1.0000
  N   N63       1.0  0.18589  0.74361  0.32183  1.0000
  N   N64       1.0  0.13449  0.76296  0.32517  1.0000
  C   C245      1.0  0.65091  0.78807  0.33804  1.0000
  C   C246      1.0  0.66630  0.78298  0.33801  1.0000
  C   C247      1.0  0.67091  0.76350  0.34081  1.0000
  C   C248      1.0  0.65977  0.74895  0.33950  1.0000
  C   C249      1.0  0.64426  0.75364  0.34009  1.0000
  C   C250      1.0  0.63999  0.77326  0.33812  1.0000
  H   H129      1.0  0.66299  0.73479  0.33991  1.0000
  H   H130      1.0  0.62879  0.77675  0.33458  1.0000
  H   H131      1.0  0.67427  0.79365  0.33585  1.0000
  N   N65       1.0  0.64757  0.80671  0.33446  1.0000
  N   N66       1.0  0.68545  0.75856  0.34042  1.0000
  N   N67       1.0  0.63403  0.73958  0.33817  1.0000
  C   C251      1.0  0.34970  0.21451  0.33700  1.0000
  C   C252      1.0  0.33435  0.21973  0.33617  1.0000
  C   C253      1.0  0.32984  0.23927  0.33872  1.0000
  C   C254      1.0  0.34105  0.25372  0.33796  1.0000
  C   C255      1.0  0.35653  0.24888  0.33932  1.0000
  C   C256      1.0  0.36070  0.22923  0.33748  1.0000
  H   H132      1.0  0.33791  0.26791  0.33836  1.0000
  H   H133      1.0  0.37189  0.22564  0.33454  1.0000
  H   H134      1.0  0.32631  0.20915  0.33382  1.0000
  N   N68       1.0  0.35296  0.19585  0.33368  1.0000
  N   N69       1.0  0.31531  0.24427  0.33787  1.0000
  N   N70       1.0  0.36686  0.26283  0.33805  1.0000
  C   C257      1.0  0.35018  0.78845  0.33266  1.0000
  C   C258      1.0  0.33479  0.78340  0.33283  1.0000
  C   C259      1.0  0.33015  0.76392  0.32971  1.0000
  C   C260      1.0  0.34126  0.74935  0.33045  1.0000
  C   C261      1.0  0.35678  0.75400  0.32972  1.0000
  C   C262      1.0  0.36109  0.77361  0.33210  1.0000
  H   H135      1.0  0.33802  0.73520  0.32960  1.0000
  H   H136      1.0  0.37229  0.77707  0.33540  1.0000
  H   H137      1.0  0.32683  0.79408  0.33521  1.0000
  N   N71       1.0  0.35355  0.80708  0.33605  1.0000
  N   N72       1.0  0.31561  0.75898  0.33003  1.0000
  N   N73       1.0  0.36695  0.73986  0.33053  1.0000
  C   C263      1.0  0.65139  0.21404  0.33312  1.0000
  C   C264      1.0  0.66677  0.21914  0.33384  1.0000
  C   C265      1.0  0.67137  0.23863  0.33078  1.0000
  C   C266      1.0  0.66022  0.25317  0.33105  1.0000
  C   C267      1.0  0.64472  0.24846  0.32983  1.0000
  C   C268      1.0  0.64046  0.22884  0.33221  1.0000
  H   H138      1.0  0.66344  0.26733  0.33011  1.0000
  H   H139      1.0  0.62926  0.22533  0.33507  1.0000
  H   H140      1.0  0.67476  0.20850  0.33641  1.0000
  N   N74       1.0  0.64805  0.19539  0.33639  1.0000
  N   N75       1.0  0.68590  0.24358  0.33138  1.0000
  N   N76       1.0  0.63451  0.26256  0.33007  1.0000
  C   C269      1.0  0.00392  0.02361  0.39778  1.0000
  C   C270      1.0  0.00592  0.04361  0.38901  1.0000
  H   H141      1.0  0.00433  0.01765  0.46023  1.0000
  H   H142      1.0  0.00776  0.05162  0.44539  1.0000
  C   C271      1.0  0.99481  0.95092  0.34910  1.0000
  C   C272      1.0  0.98569  0.96447  0.39437  1.0000
  C   C273      1.0  0.98823  0.98435  0.38557  1.0000
  H   H143      1.0  0.97697  0.95999  0.43421  1.0000
  H   H144      1.0  0.98119  0.99363  0.41860  1.0000
  C   C274      1.0  0.99176  0.93131  0.35750  1.0000
  H   H145      1.0  0.98195  0.92734  0.38398  1.0000
  C   C275      1.0  0.50399  0.52324  0.39752  1.0000
  C   C276      1.0  0.50601  0.54324  0.38873  1.0000
  H   H146      1.0  0.50444  0.51727  0.45994  1.0000
  H   H147      1.0  0.50788  0.55124  0.44508  1.0000
  C   C277      1.0  0.49481  0.45060  0.34898  1.0000
  C   C278      1.0  0.48569  0.46414  0.39435  1.0000
  C   C279      1.0  0.48823  0.48402  0.38550  1.0000
  H   H148      1.0  0.47700  0.45966  0.43432  1.0000
  H   H149      1.0  0.48121  0.49330  0.41862  1.0000
  C   C280      1.0  0.49176  0.43099  0.35744  1.0000
  H   H150      1.0  0.48194  0.42701  0.38369  1.0000
  C   C281      1.0  0.11212  0.22306  0.37501  1.0000
  C   C282      1.0  0.10616  0.21320  0.45025  1.0000
  C   C283      1.0  0.09450  0.19951  0.43789  1.0000
  C   C284      1.0  0.08838  0.19566  0.35263  1.0000
  C   C285      1.0  0.07598  0.18273  0.34241  1.0000
  C   C286      1.0  0.06209  0.18547  0.38824  1.0000
  C   C287      1.0  0.05027  0.17193  0.37710  1.0000
  H   H151      1.0  0.04040  0.17408  0.41123  1.0000
  H   H152      1.0  0.09028  0.19249  0.49256  1.0000
  N   N77       1.0  0.06006  0.20195  0.44270  1.0000
  N   N78       1.0  0.11185  0.21726  0.53667  1.0000
  O   O57       1.0  0.05728  0.19741  0.52223  1.0000
  O   O58       1.0  0.10170  0.22366  0.58720  1.0000
  O   O59       1.0  0.04955  0.21243  0.41430  1.0000
  O   O60       1.0  0.11753  0.20254  0.57200  1.0000
  C   C288      1.0  0.12219  0.23818  0.38560  1.0000
  H   H153      1.0  0.11981  0.24804  0.43176  1.0000
  C   C289      1.0  0.88945  0.77879  0.37850  1.0000
  C   C290      1.0  0.89555  0.78831  0.45426  1.0000
  C   C291      1.0  0.90725  0.80198  0.44243  1.0000
  C   C292      1.0  0.91326  0.80611  0.35717  1.0000
  C   C293      1.0  0.92559  0.81915  0.34718  1.0000
  C   C294      1.0  0.93955  0.81640  0.39223  1.0000
  C   C295      1.0  0.95129  0.83005  0.38122  1.0000
  H   H154      1.0  0.96121  0.82789  0.41474  1.0000
  H   H155      1.0  0.91154  0.80881  0.49741  1.0000
  N   N79       1.0  0.94172  0.79980  0.44572  1.0000
  N   N80       1.0  0.88992  0.78398  0.54052  1.0000
  O   O61       1.0  0.94459  0.80417  0.52534  1.0000
  O   O62       1.0  0.90010  0.77735  0.59023  1.0000
  O   O63       1.0  0.95224  0.78947  0.41627  1.0000
  O   O64       1.0  0.88433  0.79861  0.57712  1.0000
  C   C296      1.0  0.87922  0.76386  0.38814  1.0000
  H   H156      1.0  0.88177  0.75337  0.43084  1.0000
  C   C297      1.0  0.90557  0.20418  0.38787  1.0000
  C   C298      1.0  0.89403  0.21793  0.37790  1.0000
  H   H157      1.0  0.90943  0.20112  0.45069  1.0000
  H   H158      1.0  0.88991  0.22456  0.43393  1.0000
  C   C299      1.0  0.94855  0.15491  0.34123  1.0000
  C   C300      1.0  0.93440  0.15202  0.38283  1.0000
  C   C301      1.0  0.92268  0.16554  0.37378  1.0000
  H   H159      1.0  0.93243  0.13993  0.42016  1.0000
  H   H160      1.0  0.91255  0.16275  0.40411  1.0000
  C   C302      1.0  0.95984  0.14103  0.34938  1.0000
  H   H161      1.0  0.95702  0.12790  0.36990  1.0000
  C   C303      1.0  0.09540  0.79848  0.38401  1.0000
  C   C304      1.0  0.10684  0.78459  0.37476  1.0000
  H   H162      1.0  0.09161  0.80180  0.44671  1.0000
  H   H163      1.0  0.11100  0.77816  0.43116  1.0000
  C   C305      1.0  0.05275  0.84800  0.33641  1.0000
  C   C306      1.0  0.06698  0.85087  0.37713  1.0000
  C   C307      1.0  0.07861  0.83724  0.36806  1.0000
  H   H164      1.0  0.06904  0.86300  0.41398  1.0000
  H   H165      1.0  0.08879  0.83999  0.39788  1.0000
  C   C308      1.0  0.04150  0.86191  0.34512  1.0000
  H   H166      1.0  0.04439  0.87509  0.36445  1.0000
  C   C309      1.0  0.61165  0.72328  0.37369  1.0000
  C   C310      1.0  0.60575  0.71341  0.44902  1.0000
  C   C311      1.0  0.59411  0.69968  0.43680  1.0000
  C   C312      1.0  0.58796  0.69582  0.35160  1.0000
  C   C313      1.0  0.57564  0.68278  0.34149  1.0000
  C   C314      1.0  0.56176  0.68539  0.38760  1.0000
  C   C315      1.0  0.55002  0.67173  0.37666  1.0000
  H   H167      1.0  0.54016  0.67378  0.41099  1.0000
  H   H168      1.0  0.58994  0.69262  0.49150  1.0000
  N   N81       1.0  0.55966  0.70184  0.44212  1.0000
  N   N82       1.0  0.61148  0.71748  0.53531  1.0000
  O   O65       1.0  0.55695  0.69727  0.52170  1.0000
  O   O66       1.0  0.60135  0.72383  0.58609  1.0000
  O   O67       1.0  0.54906  0.71222  0.41394  1.0000
  O   O68       1.0  0.61722  0.70277  0.57046  1.0000
  C   C316      1.0  0.62178  0.73832  0.38405  1.0000
  H   H169      1.0  0.61928  0.74847  0.42857  1.0000
  C   C317      1.0  0.38930  0.27885  0.37488  1.0000
  C   C318      1.0  0.39530  0.28852  0.45053  1.0000
  C   C319      1.0  0.40705  0.30211  0.43872  1.0000
  C   C320      1.0  0.41320  0.30605  0.35360  1.0000
  C   C321      1.0  0.42557  0.31900  0.34378  1.0000
  C   C322      1.0  0.43946  0.31624  0.38959  1.0000
  C   C323      1.0  0.45125  0.32984  0.37891  1.0000
  H   H170      1.0  0.46112  0.32767  0.41299  1.0000
  H   H171      1.0  0.41128  0.30904  0.49362  1.0000
  N   N83       1.0  0.44152  0.29969  0.44353  1.0000
  N   N84       1.0  0.38954  0.28439  0.53672  1.0000
  O   O69       1.0  0.44428  0.30412  0.52321  1.0000
  O   O70       1.0  0.39963  0.27782  0.58723  1.0000
  O   O71       1.0  0.45206  0.28929  0.41484  1.0000
  O   O72       1.0  0.38393  0.29912  0.57238  1.0000
  C   C324      1.0  0.37902  0.26397  0.38478  1.0000
  H   H172      1.0  0.38137  0.25378  0.42945  1.0000
  C   C325      1.0  0.40602  0.70426  0.38969  1.0000
  C   C326      1.0  0.39457  0.71813  0.37993  1.0000
  H   H173      1.0  0.40995  0.70122  0.45239  1.0000
  H   H174      1.0  0.39057  0.72486  0.43598  1.0000
  C   C327      1.0  0.44856  0.65449  0.34217  1.0000
  C   C328      1.0  0.43443  0.65175  0.38428  1.0000
  C   C329      1.0  0.42279  0.66537  0.37546  1.0000
  H   H175      1.0  0.43244  0.63969  0.42182  1.0000
  H   H176      1.0  0.41267  0.66270  0.40616  1.0000
  C   C330      1.0  0.45979  0.64054  0.35011  1.0000
  H   H177      1.0  0.45692  0.62740  0.37021  1.0000
  C   C331      1.0  0.59543  0.29819  0.38764  1.0000
  C   C332      1.0  0.60689  0.28432  0.37834  1.0000
  H   H178      1.0  0.59153  0.30136  0.45027  1.0000
  H   H179      1.0  0.61095  0.27775  0.43465  1.0000
  C   C333      1.0  0.55282  0.34777  0.33924  1.0000
  C   C334      1.0  0.56697  0.35060  0.38091  1.0000
  C   C335      1.0  0.57863  0.33700  0.37219  1.0000
  H   H180      1.0  0.56897  0.36270  0.41819  1.0000
  H   H181      1.0  0.58876  0.33972  0.40266  1.0000
  C   C336      1.0  0.54155  0.36165  0.34756  1.0000
  H   H182      1.0  0.54440  0.37483  0.36728  1.0000
  C   C337      1.0  0.37509  0.09332  0.38586  1.0000
  C   C338      1.0  0.38029  0.07446  0.37186  1.0000
  H   H183      1.0  0.37328  0.09790  0.44994  1.0000
  H   H184      1.0  0.38233  0.06606  0.42671  1.0000
  C   C339      1.0  0.36572  0.16645  0.35196  1.0000
  C   C340      1.0  0.37769  0.15660  0.39440  1.0000
  C   C341      1.0  0.37971  0.13672  0.38274  1.0000
  H   H185      1.0  0.38529  0.16388  0.43341  1.0000
  H   H186      1.0  0.38880  0.13031  0.41273  1.0000
  C   C342      1.0  0.36439  0.18629  0.36267  1.0000
  H   H187      1.0  0.37248  0.19334  0.39513  1.0000
  C   C343      1.0  0.62567  0.90925  0.38464  1.0000
  C   C344      1.0  0.62062  0.92818  0.37070  1.0000
  H   H188      1.0  0.62753  0.90467  0.44866  1.0000
  H   H189      1.0  0.61874  0.93665  0.42556  1.0000
  C   C345      1.0  0.63470  0.83606  0.35105  1.0000
  C   C346      1.0  0.62276  0.84596  0.39356  1.0000
  C   C347      1.0  0.62079  0.86585  0.38177  1.0000
  H   H190      1.0  0.61519  0.83873  0.43287  1.0000
  H   H191      1.0  0.61173  0.87231  0.41193  1.0000
  C   C348      1.0  0.63602  0.81622  0.36195  1.0000
  H   H192      1.0  0.62782  0.80916  0.39335  1.0000
  C   C349      1.0  0.61689  0.06731  0.37946  1.0000
  C   C350      1.0  0.61918  0.07967  0.45391  1.0000
  C   C351      1.0  0.62452  0.09864  0.43976  1.0000
  C   C352      1.0  0.62759  0.10568  0.35318  1.0000
  C   C353      1.0  0.63092  0.12552  0.33953  1.0000
  C   C354      1.0  0.64313  0.13495  0.38267  1.0000
  C   C355      1.0  0.64512  0.15503  0.37073  1.0000
  H   H193      1.0  0.65393  0.16160  0.40272  1.0000
  H   H194      1.0  0.62542  0.10769  0.49344  1.0000
  N   N85       1.0  0.65330  0.12410  0.43554  1.0000
  N   N86       1.0  0.61575  0.07312  0.54123  1.0000
  O   O73       1.0  0.65353  0.12996  0.51490  1.0000
  O   O74       1.0  0.60553  0.08306  0.57678  1.0000
  O   O75       1.0  0.66648  0.12479  0.40473  1.0000
  O   O76       1.0  0.62719  0.07344  0.59073  1.0000
  C   C356      1.0  0.60942  0.04984  0.38923  1.0000
  H   H195      1.0  0.60129  0.04902  0.43500  1.0000
  C   C357      1.0  0.38419  0.93538  0.38022  1.0000
  C   C358      1.0  0.38220  0.92293  0.45470  1.0000
  C   C359      1.0  0.37701  0.90389  0.44079  1.0000
  C   C360      1.0  0.37384  0.89683  0.35436  1.0000
  C   C361      1.0  0.37061  0.87696  0.34084  1.0000
  C   C362      1.0  0.35850  0.86743  0.38449  1.0000
  C   C363      1.0  0.35657  0.84735  0.37241  1.0000
  H   H196      1.0  0.34783  0.84071  0.40482  1.0000
  H   H197      1.0  0.37633  0.89480  0.49444  1.0000
  N   N87       1.0  0.34836  0.87819  0.43797  1.0000
  N   N88       1.0  0.38580  0.92948  0.54181  1.0000
  O   O77       1.0  0.34827  0.87229  0.51728  1.0000
  O   O78       1.0  0.39620  0.91969  0.57628  1.0000
  O   O79       1.0  0.33514  0.87744  0.40780  1.0000
  O   O80       1.0  0.37448  0.92894  0.59234  1.0000
  C   C364      1.0  0.39154  0.95293  0.38961  1.0000
  H   H198      1.0  0.39986  0.95376  0.43421  1.0000
  C   C365      1.0  0.87499  0.59370  0.38458  1.0000
  C   C366      1.0  0.88021  0.57485  0.37067  1.0000
  H   H199      1.0  0.87315  0.59828  0.44863  1.0000
  H   H200      1.0  0.88225  0.56646  0.42557  1.0000
  C   C367      1.0  0.86560  0.66678  0.35082  1.0000
  C   C368      1.0  0.87758  0.65694  0.39319  1.0000
  C   C369      1.0  0.87961  0.63707  0.38142  1.0000
  H   H201      1.0  0.88517  0.66421  0.43231  1.0000
  H   H202      1.0  0.88870  0.63065  0.41141  1.0000
  C   C370      1.0  0.86424  0.68661  0.36186  1.0000
  H   H203      1.0  0.87233  0.69363  0.39450  1.0000
  C   C371      1.0  0.12511  0.40995  0.38456  1.0000
  C   C372      1.0  0.12024  0.42894  0.37028  1.0000
  H   H204      1.0  0.12688  0.40536  0.44867  1.0000
  H   H205      1.0  0.11840  0.43745  0.42502  1.0000
  C   C373      1.0  0.13356  0.33667  0.35109  1.0000
  C   C374      1.0  0.12164  0.34667  0.39318  1.0000
  C   C375      1.0  0.11984  0.36658  0.38158  1.0000
  H   H206      1.0  0.11396  0.33948  0.43194  1.0000
  H   H207      1.0  0.11079  0.37315  0.41132  1.0000
  C   C376      1.0  0.13467  0.31680  0.36087  1.0000
  H   H208      1.0  0.12595  0.30960  0.38599  1.0000
  C   C377      1.0  0.11683  0.56792  0.38084  1.0000
  C   C378      1.0  0.11914  0.58025  0.45537  1.0000
  C   C379      1.0  0.12453  0.59920  0.44136  1.0000
  C   C380      1.0  0.12762  0.60624  0.35482  1.0000
  C   C381      1.0  0.13097  0.62608  0.34122  1.0000
  C   C382      1.0  0.14320  0.63547  0.38425  1.0000
  C   C383      1.0  0.14523  0.65555  0.37216  1.0000
  H   H209      1.0  0.15407  0.66209  0.40400  1.0000
  H   H210      1.0  0.12544  0.60823  0.49508  1.0000
  N   N89       1.0  0.15336  0.62461  0.43712  1.0000
  N   N90       1.0  0.11568  0.57369  0.54265  1.0000
  O   O81       1.0  0.15361  0.63048  0.51646  1.0000
  O   O82       1.0  0.10549  0.58365  0.57824  1.0000
  O   O83       1.0  0.16654  0.62525  0.40626  1.0000
  O   O84       1.0  0.12713  0.57394  0.59218  1.0000
  C   C384      1.0  0.10933  0.55047  0.39044  1.0000
  H   H211      1.0  0.10121  0.54963  0.43632  1.0000
  C   C385      1.0  0.88423  0.43593  0.38128  1.0000
  C   C386      1.0  0.88232  0.42346  0.45571  1.0000
  C   C387      1.0  0.87729  0.40435  0.44166  1.0000
  C   C388      1.0  0.87421  0.39729  0.35514  1.0000
  C   C389      1.0  0.87120  0.37738  0.34149  1.0000
  C   C390      1.0  0.85915  0.36769  0.38490  1.0000
  C   C391      1.0  0.85747  0.34757  0.37307  1.0000
  H   H212      1.0  0.84881  0.34077  0.40553  1.0000
  H   H213      1.0  0.87667  0.39524  0.49524  1.0000
  N   N91       1.0  0.84885  0.37828  0.43802  1.0000
  N   N92       1.0  0.88584  0.43003  0.54289  1.0000
  O   O85       1.0  0.84877  0.37242  0.51740  1.0000
  O   O86       1.0  0.89631  0.42036  0.57740  1.0000
  O   O87       1.0  0.83566  0.37727  0.40754  1.0000
  O   O88       1.0  0.87452  0.42933  0.59332  1.0000
  C   C392      1.0  0.89149  0.45354  0.39077  1.0000
  H   H214      1.0  0.89976  0.45446  0.43560  1.0000
  C   C393      1.0  0.48236  0.99732  0.39450  1.0000
  C   C394      1.0  0.46668  0.99616  0.38190  1.0000
  H   H215      1.0  0.48648  0.99855  0.45810  1.0000
  H   H216      1.0  0.45985  0.99635  0.43706  1.0000
  C   C395      1.0  0.54008  0.99272  0.35729  1.0000
  C   C396      1.0  0.53008  0.97959  0.39844  1.0000
  C   C397      1.0  0.51441  0.98123  0.38715  1.0000
  H   H217      1.0  0.53411  0.96842  0.43624  1.0000
  H   H218      1.0  0.50760  0.97112  0.41641  1.0000
  C   C398      1.0  0.55557  0.99021  0.36735  1.0000
  H   H219      1.0  0.55928  0.97909  0.40314  1.0000
  C   C399      1.0  0.98228  0.49759  0.39431  1.0000
  C   C400      1.0  0.96661  0.49643  0.38166  1.0000
  H   H220      1.0  0.98640  0.49887  0.45790  1.0000
  H   H221      1.0  0.95977  0.49669  0.43678  1.0000
  C   C401      1.0  0.03999  0.49326  0.35757  1.0000
  C   C402      1.0  0.03003  0.48005  0.39862  1.0000
  C   C403      1.0  0.01437  0.48159  0.38714  1.0000
  H   H222      1.0  0.03410  0.46893  0.43654  1.0000
  H   H223      1.0  0.00758  0.47145  0.41641  1.0000
  C   C404      1.0  0.05549  0.49085  0.36779  1.0000
  H   H224      1.0  0.05923  0.47978  0.40372  1.0000
  C   C405      1.0  0.28946  0.24230  0.37375  1.0000
  C   C406      1.0  0.27950  0.24221  0.44815  1.0000
  C   C407      1.0  0.26388  0.24541  0.43445  1.0000
  C   C408      1.0  0.25787  0.24860  0.34838  1.0000
  C   C409      1.0  0.24195  0.24998  0.33567  1.0000
  C   C410      1.0  0.23298  0.26374  0.38155  1.0000
  C   C411      1.0  0.21707  0.26337  0.37135  1.0000
  H   H225      1.0  0.21081  0.27328  0.40572  1.0000
  H   H226      1.0  0.25676  0.24461  0.48816  1.0000
  N   N93       1.0  0.24005  0.27784  0.43560  1.0000
  N   N94       1.0  0.28520  0.23865  0.53505  1.0000
  O   O89       1.0  0.23569  0.27681  0.51531  1.0000
  O   O90       1.0  0.27951  0.22374  0.56859  1.0000
  O   O91       1.0  0.23752  0.29454  0.40712  1.0000
  O   O92       1.0  0.28275  0.25260  0.58645  1.0000
  C   C412      1.0  0.30445  0.23678  0.38330  1.0000
  H   H227      1.0  0.30673  0.22617  0.42592  1.0000
  C   C413      1.0  0.71136  0.76064  0.37453  1.0000
  C   C414      1.0  0.72146  0.76136  0.44822  1.0000
  C   C415      1.0  0.73699  0.75752  0.43456  1.0000
  C   C416      1.0  0.74279  0.75294  0.34929  1.0000
  C   C417      1.0  0.75858  0.74994  0.33636  1.0000
  C   C418      1.0  0.76686  0.73617  0.38675  1.0000
  C   C419      1.0  0.78256  0.73402  0.37169  1.0000
  H   H228      1.0  0.78836  0.72376  0.40686  1.0000
  H   H229      1.0  0.74420  0.75863  0.48771  1.0000
  N   N95       1.0  0.75925  0.72413  0.44843  1.0000
  N   N96       1.0  0.71595  0.76596  0.53450  1.0000
  O   O93       1.0  0.76443  0.72603  0.52605  1.0000
  O   O94       1.0  0.72198  0.78100  0.56460  1.0000
  O   O95       1.0  0.76015  0.70671  0.42645  1.0000
  O   O96       1.0  0.71820  0.75245  0.58870  1.0000
  C   C420      1.0  0.69641  0.76639  0.38371  1.0000
  H   H230      1.0  0.69423  0.77736  0.42452  1.0000
  C   C421      1.0  0.73313  0.24909  0.39473  1.0000
  C   C422      1.0  0.71764  0.24565  0.38219  1.0000
  H   H231      1.0  0.73702  0.25164  0.45799  1.0000
  H   H232      1.0  0.71078  0.24545  0.43724  1.0000
  C   C423      1.0  0.79115  0.25245  0.35930  1.0000
  C   C424      1.0  0.78229  0.23894  0.40643  1.0000
  C   C425      1.0  0.76657  0.23807  0.39443  1.0000
  H   H233      1.0  0.78722  0.22936  0.44946  1.0000
  H   H234      1.0  0.76064  0.22774  0.42839  1.0000
  C   C426      1.0  0.80672  0.25299  0.37278  1.0000
  H   H235      1.0  0.81113  0.24634  0.42558  1.0000
  C   C427      1.0  0.26854  0.75214  0.39364  1.0000
  C   C428      1.0  0.28396  0.75613  0.38138  1.0000
  H   H236      1.0  0.26478  0.74883  0.45641  1.0000
  H   H237      1.0  0.29087  0.75597  0.43618  1.0000
  C   C429      1.0  0.21102  0.74458  0.36341  1.0000
  C   C430      1.0  0.21924  0.75806  0.41418  1.0000
  C   C431      1.0  0.23477  0.76069  0.39913  1.0000
  H   H238      1.0  0.21400  0.76608  0.46248  1.0000
  H   H239      1.0  0.24034  0.77081  0.43630  1.0000
  C   C432      1.0  0.19604  0.74101  0.38190  1.0000
  H   H240      1.0  0.19340  0.73539  0.44102  1.0000
