data_image0
_chemical_formula_structural       C2NC2H3CH3CH3C2NC2H3CH3CH3C2NC2H3CH3CH3C2NC2H3CH3CH3C2NC2H3CH3CH3C2NC2H3CH3CH3CNCHOHCNCHOHCNCHOHCNCHOHCNCHOHCNCHOHCNCHOHCNCHOHCNCHOHCNCHOHCNCHOHCNCHOHC2NC2H3CH3CH3C2NC2H3CH3CH3C2NC2H3CH3CH3C2NC2H3CH3CH3C2NC2H3CH3CH3C2NC2H3CH3CH3CNCHOHCNCHOHCNCHOHCNCHOHCNCHOHCNCHOHCNCHOHCNCHOHCNCHOHCNCHOHCNCHOHCNCHOHC6H3C6H3C6H3C6H3C6H3C6H3C6H3C6H3C6H3C6H3C6H3C6H3C6H3C6H3C6H3C6H3C6H3C6H3C6H3C6H3C6H3C6H3C6H3C6H3CNCOHCNCOHCNCOHCNCOHCNCOHCNCOHC2NC2H2CH3CH3C2NC2H2CH3CH3C2NC2H2CH3CH3C2NC2H2CH3CH3C2NC2H2CH3CH3C2NC2H2CH3CH3C2NC2H2CH3CH3C2NC2H2CH3CH3C2NC2H2CH3CH3C2NC2H2CH3CH3C2NC2H2CH3CH3C2NC2H2CH3CH3CNCOHCNCOHCNCOHCNCOHCNCOHCNCOHC2NC2H2CH3CH3C2NC2H2CH3CH3C2NC2H2CH3CH3C2NC2H2CH3CH3C2NC2H2CH3CH3C2NC2H2CH3CH3C2NC2H2CH3CH3C2NC2H2CH3CH3C2NC2H2CH3CH3C2NC2H2CH3CH3C2NC2H2CH3CH3C2NC2H2CH3CH3
_chemical_formula_sum              "C432 N72 H432 O36"
_cell_length_a       54.1613
_cell_length_b       54.1614
_cell_length_c       14.8535
_cell_angle_alpha    90
_cell_angle_beta     90
_cell_angle_gamma    120

_space_group_name_H-M_alt    "P 1"
_space_group_IT_number       1

loop_
  _space_group_symop_operation_xyz
  'x, y, z'

loop_
  _atom_site_type_symbol
  _atom_site_label
  _atom_site_symmetry_multiplicity
  _atom_site_fract_x
  _atom_site_fract_y
  _atom_site_fract_z
  _atom_site_occupancy
  C   C1        1.0  0.13695  0.44172  0.24479  1.0000
  C   C2        1.0  0.14266  0.45906  0.32354  1.0000
  N   N1        1.0  0.12410  0.41298  0.25820  1.0000
  C   C3        1.0  0.14150  0.45166  0.14715  1.0000
  C   C4        1.0  0.13530  0.42690  0.07907  1.0000
  H   H1        1.0  0.14969  0.41859  0.09137  1.0000
  H   H2        1.0  0.13816  0.43422  0.00922  1.0000
  H   H3        1.0  0.11342  0.40927  0.08544  1.0000
  C   C5        1.0  0.17261  0.47602  0.12634  1.0000
  H   H4        1.0  0.18815  0.47039  0.15100  1.0000
  H   H5        1.0  0.17719  0.49620  0.15601  1.0000
  H   H6        1.0  0.17588  0.47995  0.05403  1.0000
  C   C6        1.0  0.11988  0.46196  0.12497  1.0000
  H   H7        1.0  0.09794  0.44447  0.13184  1.0000
  H   H8        1.0  0.12274  0.47007  0.05611  1.0000
  H   H9        1.0  0.12253  0.47891  0.17025  1.0000
  C   C7        1.0  0.57058  0.69767  0.24482  1.0000
  C   C8        1.0  0.55327  0.68610  0.32371  1.0000
  N   N2        1.0  0.59932  0.71357  0.25818  1.0000
  C   C9        1.0  0.56061  0.69231  0.14719  1.0000
  C   C10       1.0  0.58537  0.71087  0.07909  1.0000
  H   H10       1.0  0.59370  0.73357  0.09144  1.0000
  H   H11       1.0  0.57804  0.70643  0.00925  1.0000
  H   H12       1.0  0.60299  0.70661  0.08540  1.0000
  C   C11       1.0  0.53627  0.69909  0.12644  1.0000
  H   H13       1.0  0.54191  0.72025  0.15122  1.0000
  H   H14       1.0  0.51608  0.68349  0.15605  1.0000
  H   H15       1.0  0.53235  0.69847  0.05414  1.0000
  C   C12       1.0  0.55030  0.66040  0.12493  1.0000
  H   H16       1.0  0.56778  0.65593  0.13169  1.0000
  H   H17       1.0  0.54216  0.65516  0.05610  1.0000
  H   H18       1.0  0.53336  0.64610  0.17024  1.0000
  C   C13       1.0  0.31468  0.87539  0.24464  1.0000
  C   C14       1.0  0.32634  0.86974  0.32342  1.0000
  N   N3        1.0  0.29872  0.88817  0.25804  1.0000
  C   C15       1.0  0.32006  0.87081  0.14702  1.0000
  C   C16       1.0  0.30148  0.87696  0.07891  1.0000
  H   H19       1.0  0.27878  0.86257  0.09125  1.0000
  H   H20       1.0  0.30593  0.87409  0.00908  1.0000
  H   H21       1.0  0.30571  0.89884  0.08522  1.0000
  C   C17       1.0  0.31332  0.83969  0.12634  1.0000
  H   H22       1.0  0.29215  0.82415  0.15102  1.0000
  H   H23       1.0  0.32892  0.83512  0.15607  1.0000
  H   H24       1.0  0.31398  0.83640  0.05404  1.0000
  C   C18       1.0  0.35196  0.89242  0.12479  1.0000
  H   H25       1.0  0.35641  0.91436  0.13156  1.0000
  H   H26       1.0  0.35721  0.88953  0.05595  1.0000
  H   H27       1.0  0.36627  0.88980  0.17010  1.0000
  C   C19       1.0  0.87782  0.56817  0.24482  1.0000
  C   C20       1.0  0.87211  0.55086  0.32362  1.0000
  N   N4        1.0  0.89067  0.59691  0.25825  1.0000
  C   C21       1.0  0.87327  0.55823  0.14717  1.0000
  C   C22       1.0  0.87945  0.58299  0.07911  1.0000
  H   H28       1.0  0.86505  0.59130  0.09145  1.0000
  H   H29       1.0  0.87658  0.57568  0.00927  1.0000
  H   H30       1.0  0.90132  0.60063  0.08548  1.0000
  C   C23       1.0  0.84216  0.53387  0.12638  1.0000
  H   H31       1.0  0.82661  0.53949  0.15106  1.0000
  H   H32       1.0  0.83759  0.51369  0.15603  1.0000
  H   H33       1.0  0.83889  0.52994  0.05407  1.0000
  C   C24       1.0  0.89489  0.54795  0.12496  1.0000
  H   H34       1.0  0.91683  0.56544  0.13182  1.0000
  H   H35       1.0  0.89202  0.53983  0.05611  1.0000
  H   H36       1.0  0.89225  0.53101  0.17024  1.0000
  C   C25       1.0  0.44419  0.31218  0.24478  1.0000
  C   C26       1.0  0.46150  0.32373  0.32364  1.0000
  N   N5        1.0  0.41545  0.29629  0.25822  1.0000
  C   C27       1.0  0.45413  0.31754  0.14713  1.0000
  C   C28       1.0  0.42936  0.29898  0.07909  1.0000
  H   H37       1.0  0.42102  0.27627  0.09144  1.0000
  H   H38       1.0  0.43667  0.30341  0.00923  1.0000
  H   H39       1.0  0.41174  0.30325  0.08545  1.0000
  C   C29       1.0  0.47846  0.31074  0.12634  1.0000
  H   H40       1.0  0.47282  0.28957  0.15112  1.0000
  H   H41       1.0  0.49866  0.32634  0.15592  1.0000
  H   H42       1.0  0.48236  0.31135  0.05403  1.0000
  C   C30       1.0  0.46446  0.34945  0.12487  1.0000
  H   H43       1.0  0.44699  0.35393  0.13167  1.0000
  H   H44       1.0  0.47258  0.35468  0.05602  1.0000
  H   H45       1.0  0.48140  0.36374  0.17016  1.0000
  C   C31       1.0  0.70019  0.13449  0.24481  1.0000
  C   C32       1.0  0.68851  0.14016  0.32355  1.0000
  N   N6        1.0  0.71610  0.12166  0.25822  1.0000
  C   C33       1.0  0.69479  0.13903  0.14716  1.0000
  C   C34       1.0  0.71337  0.13286  0.07909  1.0000
  H   H46       1.0  0.73608  0.14726  0.09141  1.0000
  H   H47       1.0  0.70892  0.13571  0.00924  1.0000
  H   H48       1.0  0.70914  0.11098  0.08546  1.0000
  C   C35       1.0  0.70152  0.17013  0.12635  1.0000
  H   H49       1.0  0.72269  0.18568  0.15102  1.0000
  H   H50       1.0  0.68592  0.17470  0.15601  1.0000
  H   H51       1.0  0.70087  0.17340  0.05404  1.0000
  C   C36       1.0  0.66289  0.11740  0.12496  1.0000
  H   H52       1.0  0.65844  0.09546  0.13184  1.0000
  H   H53       1.0  0.65764  0.12026  0.05610  1.0000
  H   H54       1.0  0.64858  0.12004  0.17022  1.0000
  C   C37       1.0  0.44669  0.13410  0.27056  1.0000
  N   N7        1.0  0.41770  0.12057  0.26610  1.0000
  C   C38       1.0  0.40165  0.11462  0.34181  1.0000
  H   H55       1.0  0.43695  0.13304  0.00389  1.0000
  O   O1        1.0  0.46130  0.14123  0.19173  1.0000
  H   H56       1.0  0.40845  0.11635  0.20733  1.0000
  C   C39       1.0  0.69717  0.56563  0.27079  1.0000
  N   N8        1.0  0.71267  0.59462  0.26633  1.0000
  C   C40       1.0  0.72282  0.61066  0.34204  1.0000
  H   H57       1.0  0.70587  0.57535  0.00411  1.0000
  O   O2        1.0  0.68965  0.55103  0.19196  1.0000
  H   H58       1.0  0.71768  0.60387  0.20755  1.0000
  C   C41       1.0  0.87818  0.31508  0.27070  1.0000
  N   N9        1.0  0.89167  0.29958  0.26619  1.0000
  C   C42       1.0  0.89774  0.28957  0.34189  1.0000
  H   H59       1.0  0.87944  0.30653  0.00405  1.0000
  O   O3        1.0  0.87103  0.32255  0.19188  1.0000
  H   H60       1.0  0.89589  0.29455  0.20741  1.0000
  C   C43       1.0  0.56811  0.87575  0.27059  1.0000
  N   N10       1.0  0.59710  0.88927  0.26615  1.0000
  C   C44       1.0  0.61315  0.89524  0.34187  1.0000
  H   H61       1.0  0.57787  0.87685  0.00397  1.0000
  O   O4        1.0  0.55349  0.86865  0.19179  1.0000
  H   H62       1.0  0.60636  0.89355  0.20737  1.0000
  C   C45       1.0  0.31758  0.44421  0.27087  1.0000
  N   N11       1.0  0.30210  0.41522  0.26640  1.0000
  C   C46       1.0  0.29196  0.39917  0.34211  1.0000
  H   H63       1.0  0.30888  0.43448  0.00421  1.0000
  O   O5        1.0  0.32509  0.45882  0.19203  1.0000
  H   H64       1.0  0.29706  0.40597  0.20762  1.0000
  C   C47       1.0  0.13661  0.69480  0.27071  1.0000
  N   N12       1.0  0.12308  0.71026  0.26624  1.0000
  C   C48       1.0  0.11709  0.72033  0.34195  1.0000
  H   H65       1.0  0.13541  0.70337  0.00409  1.0000
  O   O6        1.0  0.14377  0.68734  0.19189  1.0000
  H   H66       1.0  0.11890  0.71532  0.20746  1.0000
  C   C49       1.0  0.25693  0.53186  0.26735  1.0000
  N   N13       1.0  0.28213  0.53213  0.26305  1.0000
  C   C50       1.0  0.29489  0.53001  0.33894  1.0000
  H   H67       1.0  0.26198  0.52472  0.00054  1.0000
  O   O7        1.0  0.24450  0.53207  0.18830  1.0000
  H   H68       1.0  0.29031  0.53236  0.20434  1.0000
  C   C51       1.0  0.48036  0.72745  0.26743  1.0000
  N   N14       1.0  0.48007  0.75238  0.26320  1.0000
  C   C52       1.0  0.48218  0.76725  0.33908  1.0000
  H   H69       1.0  0.48756  0.73964  0.00061  1.0000
  O   O8        1.0  0.48019  0.71485  0.18835  1.0000
  H   H70       1.0  0.47984  0.76034  0.20451  1.0000
  C   C53       1.0  0.28489  0.75542  0.26763  1.0000
  N   N15       1.0  0.25999  0.73018  0.26335  1.0000
  C   C54       1.0  0.24507  0.71749  0.33924  1.0000
  H   H71       1.0  0.27262  0.75048  0.00080  1.0000
  O   O9        1.0  0.29753  0.76783  0.18857  1.0000
  H   H72       1.0  0.25204  0.72198  0.20466  1.0000
  C   C55       1.0  0.75789  0.47799  0.26745  1.0000
  N   N16       1.0  0.73268  0.47773  0.26317  1.0000
  C   C56       1.0  0.71994  0.47988  0.33902  1.0000
  H   H73       1.0  0.75284  0.48515  0.00062  1.0000
  O   O10       1.0  0.77031  0.47777  0.18839  1.0000
  H   H74       1.0  0.72450  0.47749  0.20445  1.0000
  C   C57       1.0  0.53436  0.28239  0.26736  1.0000
  N   N17       1.0  0.53463  0.25745  0.26308  1.0000
  C   C58       1.0  0.53257  0.24261  0.33897  1.0000
  H   H75       1.0  0.52726  0.27022  0.00059  1.0000
  O   O11       1.0  0.53454  0.29501  0.18831  1.0000
  H   H76       1.0  0.53488  0.24950  0.20438  1.0000
  C   C59       1.0  0.72993  0.25444  0.26752  1.0000
  N   N18       1.0  0.75486  0.27964  0.26328  1.0000
  C   C60       1.0  0.76976  0.29239  0.33915  1.0000
  H   H77       1.0  0.74214  0.25943  0.00071  1.0000
  O   O12       1.0  0.71727  0.24203  0.18848  1.0000
  H   H78       1.0  0.76279  0.28787  0.20459  1.0000
  C   C61       1.0  0.17975  0.58105  0.24221  1.0000
  C   C62       1.0  0.17502  0.56362  0.32028  1.0000
  N   N19       1.0  0.17996  0.60606  0.25584  1.0000
  C   C63       1.0  0.18404  0.57474  0.14523  1.0000
  C   C64       1.0  0.18854  0.59924  0.07827  1.0000
  H   H79       1.0  0.17039  0.60280  0.07992  1.0000
  H   H80       1.0  0.19094  0.59412  0.00875  1.0000
  H   H81       1.0  0.20769  0.61925  0.09592  1.0000
  C   C65       1.0  0.15677  0.54722  0.11237  1.0000
  H   H82       1.0  0.13790  0.54950  0.11880  1.0000
  H   H83       1.0  0.15320  0.52880  0.15149  1.0000
  H   H84       1.0  0.15876  0.54265  0.04189  1.0000
  C   C66       1.0  0.21077  0.57109  0.13452  1.0000
  H   H85       1.0  0.22914  0.58814  0.16944  1.0000
  H   H86       1.0  0.21652  0.57157  0.06378  1.0000
  H   H87       1.0  0.20679  0.55070  0.16066  1.0000
  C   C67       1.0  0.43127  0.60114  0.24224  1.0000
  C   C68       1.0  0.44870  0.61382  0.32030  1.0000
  N   N20       1.0  0.40627  0.57633  0.25587  1.0000
  C   C69       1.0  0.43755  0.61174  0.14526  1.0000
  C   C70       1.0  0.41304  0.59174  0.07832  1.0000
  H   H88       1.0  0.40950  0.57003  0.07993  1.0000
  H   H89       1.0  0.41815  0.59928  0.00881  1.0000
  H   H90       1.0  0.39304  0.59087  0.09603  1.0000
  C   C71       1.0  0.46508  0.61202  0.11233  1.0000
  H   H91       1.0  0.46282  0.59088  0.11871  1.0000
  H   H92       1.0  0.48349  0.62687  0.15143  1.0000
  H   H93       1.0  0.46963  0.61859  0.04186  1.0000
  C   C72       1.0  0.44117  0.64212  0.13462  1.0000
  H   H94       1.0  0.42413  0.64343  0.16963  1.0000
  H   H95       1.0  0.44067  0.64739  0.06391  1.0000
  H   H96       1.0  0.46157  0.65853  0.16070  1.0000
  C   C73       1.0  0.41120  0.83262  0.24240  1.0000
  C   C74       1.0  0.39851  0.83732  0.32053  1.0000
  N   N21       1.0  0.43602  0.83244  0.25598  1.0000
  C   C75       1.0  0.40058  0.82828  0.14544  1.0000
  C   C76       1.0  0.42058  0.82378  0.07847  1.0000
  H   H97       1.0  0.44228  0.84195  0.08003  1.0000
  H   H98       1.0  0.41303  0.82134  0.00897  1.0000
  H   H99       1.0  0.42146  0.80464  0.09617  1.0000
  C   C77       1.0  0.40029  0.85552  0.11247  1.0000
  H   H100      1.0  0.42142  0.87440  0.11882  1.0000
  H   H101      1.0  0.38543  0.85908  0.15159  1.0000
  H   H102      1.0  0.39371  0.85349  0.04201  1.0000
  C   C78       1.0  0.37021  0.80152  0.13486  1.0000
  H   H103      1.0  0.36891  0.78317  0.16989  1.0000
  H   H104      1.0  0.36493  0.79572  0.06415  1.0000
  H   H105      1.0  0.35380  0.80550  0.16095  1.0000
  C   C79       1.0  0.83506  0.42886  0.24229  1.0000
  C   C80       1.0  0.83985  0.44631  0.32035  1.0000
  N   N22       1.0  0.83482  0.40383  0.25588  1.0000
  C   C81       1.0  0.83080  0.43518  0.14531  1.0000
  C   C82       1.0  0.82625  0.41066  0.07833  1.0000
  H   H106      1.0  0.84438  0.40707  0.07998  1.0000
  H   H107      1.0  0.82386  0.41580  0.00883  1.0000
  H   H108      1.0  0.80708  0.39068  0.09597  1.0000
  C   C83       1.0  0.85810  0.46267  0.11247  1.0000
  H   H109      1.0  0.87694  0.46035  0.11888  1.0000
  H   H110      1.0  0.86171  0.48110  0.15162  1.0000
  H   H111      1.0  0.85612  0.46726  0.04200  1.0000
  C   C84       1.0  0.80410  0.43889  0.13458  1.0000
  H   H112      1.0  0.78571  0.42186  0.16948  1.0000
  H   H113      1.0  0.79836  0.43843  0.06384  1.0000
  H   H114      1.0  0.80812  0.45929  0.16073  1.0000
  C   C85       1.0  0.58351  0.40870  0.24221  1.0000
  C   C86       1.0  0.56607  0.39602  0.32028  1.0000
  N   N23       1.0  0.60852  0.43350  0.25583  1.0000
  C   C87       1.0  0.57722  0.39811  0.14523  1.0000
  C   C88       1.0  0.60173  0.41809  0.07829  1.0000
  H   H115      1.0  0.60530  0.43981  0.07992  1.0000
  H   H116      1.0  0.59661  0.41057  0.00877  1.0000
  H   H117      1.0  0.62172  0.41893  0.09597  1.0000
  C   C89       1.0  0.54971  0.39788  0.11232  1.0000
  H   H118      1.0  0.55200  0.41903  0.11873  1.0000
  H   H119      1.0  0.53128  0.38305  0.15144  1.0000
  H   H120      1.0  0.54514  0.39132  0.04185  1.0000
  C   C90       1.0  0.57354  0.36772  0.13453  1.0000
  H   H121      1.0  0.59056  0.36637  0.16951  1.0000
  H   H122      1.0  0.57403  0.36245  0.06380  1.0000
  H   H123      1.0  0.55313  0.35132  0.16061  1.0000
  C   C91       1.0  0.60360  0.17722  0.24229  1.0000
  C   C92       1.0  0.61629  0.17249  0.32038  1.0000
  N   N24       1.0  0.57881  0.17744  0.25588  1.0000
  C   C93       1.0  0.61420  0.18150  0.14531  1.0000
  C   C94       1.0  0.59421  0.18602  0.07833  1.0000
  H   H124      1.0  0.57250  0.16787  0.07998  1.0000
  H   H125      1.0  0.60174  0.18841  0.00882  1.0000
  H   H126      1.0  0.59337  0.20518  0.09597  1.0000
  C   C95       1.0  0.61443  0.15422  0.11247  1.0000
  H   H127      1.0  0.59328  0.13536  0.11889  1.0000
  H   H128      1.0  0.62927  0.15064  0.15160  1.0000
  H   H129      1.0  0.62099  0.15620  0.04200  1.0000
  C   C96       1.0  0.64459  0.20822  0.13461  1.0000
  H   H130      1.0  0.64593  0.22660  0.16953  1.0000
  H   H131      1.0  0.64986  0.21397  0.06388  1.0000
  H   H132      1.0  0.66099  0.20422  0.16075  1.0000
  C   C97       1.0  0.99170  0.27364  0.27868  1.0000
  N   N25       1.0  0.02084  0.28827  0.27410  1.0000
  C   C98       1.0  0.03737  0.30020  0.34825  1.0000
  H   H133      1.0  0.00247  0.29618  0.00664  1.0000
  O   O13       1.0  0.97710  0.26394  0.20035  1.0000
  H   H134      1.0  0.02998  0.29120  0.21546  1.0000
  C   C99       1.0  0.73872  0.72055  0.27867  1.0000
  N   N26       1.0  0.72409  0.73505  0.27408  1.0000
  C   C100      1.0  0.71214  0.73964  0.34822  1.0000
  H   H135      1.0  0.71616  0.70876  0.00664  1.0000
  O   O14       1.0  0.74843  0.71566  0.20036  1.0000
  H   H136      1.0  0.72115  0.74126  0.21544  1.0000
  C   C101      1.0  0.29169  0.02060  0.27892  1.0000
  N   N27       1.0  0.27716  0.99146  0.27439  1.0000
  C   C102      1.0  0.27276  0.97496  0.34851  1.0000
  H   H137      1.0  0.30377  0.00992  0.00678  1.0000
  O   O15       1.0  0.29648  0.03519  0.20060  1.0000
  H   H138      1.0  0.27091  0.98231  0.21579  1.0000
  C   C103      1.0  0.02312  0.73628  0.27880  1.0000
  N   N28       1.0  0.99398  0.72169  0.27423  1.0000
  C   C104      1.0  0.97745  0.70969  0.34836  1.0000
  H   H139      1.0  0.01234  0.71365  0.00675  1.0000
  O   O16       1.0  0.03772  0.74601  0.20049  1.0000
  H   H140      1.0  0.98483  0.71876  0.21559  1.0000
  C   C105      1.0  0.27607  0.28930  0.27882  1.0000
  N   N29       1.0  0.29069  0.27477  0.27423  1.0000
  C   C106      1.0  0.30266  0.27023  0.34837  1.0000
  H   H141      1.0  0.29860  0.30107  0.00679  1.0000
  O   O17       1.0  0.26635  0.29418  0.20051  1.0000
  H   H142      1.0  0.29364  0.26858  0.21557  1.0000
  C   C107      1.0  0.72309  0.98925  0.27874  1.0000
  N   N30       1.0  0.73761  0.01839  0.27417  1.0000
  C   C108      1.0  0.74214  0.03491  0.34829  1.0000
  H   H143      1.0  0.71113  0.00001  0.00661  1.0000
  O   O18       1.0  0.71823  0.97465  0.20043  1.0000
  H   H144      1.0  0.74385  0.02754  0.21554  1.0000
  C   C109      1.0  0.17850  0.32154  0.27505  1.0000
  N   N31       1.0  0.15337  0.32172  0.27015  1.0000
  C   C110      1.0  0.14011  0.32399  0.34496  1.0000
  H   H145      1.0  0.17540  0.33398  0.00589  1.0000
  O   O19       1.0  0.19096  0.32105  0.19639  1.0000
  H   H146      1.0  0.14550  0.32166  0.21107  1.0000
  C   C111      1.0  0.69067  0.85938  0.27509  1.0000
  N   N32       1.0  0.69048  0.83406  0.27021  1.0000
  C   C112      1.0  0.68832  0.81855  0.34500  1.0000
  H   H147      1.0  0.67849  0.84395  0.00594  1.0000
  O   O20       1.0  0.69112  0.87230  0.19640  1.0000
  H   H148      1.0  0.69049  0.82624  0.21110  1.0000
  C   C113      1.0  0.15296  0.83371  0.27486  1.0000
  N   N33       1.0  0.17828  0.85883  0.26996  1.0000
  C   C114      1.0  0.19374  0.87225  0.34476  1.0000
  H   H149      1.0  0.16837  0.83703  0.00575  1.0000
  O   O21       1.0  0.14006  0.82119  0.19618  1.0000
  H   H150      1.0  0.18611  0.86667  0.21086  1.0000
  C   C115      1.0  0.83627  0.68830  0.27499  1.0000
  N   N34       1.0  0.86140  0.68813  0.27012  1.0000
  C   C116      1.0  0.87473  0.68595  0.34491  1.0000
  H   H151      1.0  0.83941  0.67583  0.00585  1.0000
  O   O22       1.0  0.82379  0.68879  0.19636  1.0000
  H   H152      1.0  0.86930  0.68824  0.21104  1.0000
  C   C117      1.0  0.32409  0.15048  0.27525  1.0000
  N   N35       1.0  0.32428  0.17580  0.27042  1.0000
  C   C118      1.0  0.32652  0.19130  0.34528  1.0000
  H   H153      1.0  0.33633  0.16583  0.00615  1.0000
  O   O23       1.0  0.32364  0.13756  0.19653  1.0000
  H   H154      1.0  0.32427  0.18364  0.21134  1.0000
  C   C119      1.0  0.86191  0.17612  0.27503  1.0000
  N   N36       1.0  0.83661  0.15097  0.27011  1.0000
  C   C120      1.0  0.82109  0.13764  0.34488  1.0000
  H   H155      1.0  0.84625  0.17296  0.00585  1.0000
  O   O24       1.0  0.87486  0.18861  0.19639  1.0000
  H   H156      1.0  0.82881  0.14311  0.21102  1.0000
  C   C121      1.0  0.21466  0.52378  0.34803  1.0000
  C   C122      1.0  0.19239  0.49537  0.33799  1.0000
  C   C123      1.0  0.16377  0.48861  0.32643  1.0000
  C   C124      1.0  0.15776  0.51126  0.32292  1.0000
  C   C125      1.0  0.18009  0.54014  0.32399  1.0000
  C   C126      1.0  0.20833  0.54597  0.33925  1.0000
  H   H157      1.0  0.13709  0.50671  0.31658  1.0000
  H   H158      1.0  0.22466  0.56669  0.34241  1.0000
  H   H159      1.0  0.19711  0.47924  0.34031  1.0000
  C   C127      1.0  0.48852  0.69331  0.34807  1.0000
  C   C128      1.0  0.51693  0.69945  0.33800  1.0000
  C   C129      1.0  0.52371  0.67761  0.32636  1.0000
  C   C130      1.0  0.50108  0.64894  0.32298  1.0000
  C   C131      1.0  0.47218  0.64238  0.32397  1.0000
  C   C132      1.0  0.46634  0.66478  0.33926  1.0000
  H   H160      1.0  0.50564  0.63284  0.31657  1.0000
  H   H161      1.0  0.44562  0.66038  0.34243  1.0000
  H   H162      1.0  0.53305  0.72031  0.34034  1.0000
  C   C133      1.0  0.31903  0.79773  0.34834  1.0000
  C   C134      1.0  0.31291  0.82002  0.33804  1.0000
  C   C135      1.0  0.33478  0.84863  0.32640  1.0000
  C   C136      1.0  0.36343  0.85462  0.32304  1.0000
  C   C137      1.0  0.36996  0.83227  0.32420  1.0000
  C   C138      1.0  0.34754  0.80404  0.33949  1.0000
  H   H163      1.0  0.37956  0.87528  0.31653  1.0000
  H   H164      1.0  0.35192  0.78771  0.34272  1.0000
  H   H165      1.0  0.29206  0.81531  0.34034  1.0000
  C   C139      1.0  0.80015  0.48609  0.34814  1.0000
  C   C140      1.0  0.82241  0.51450  0.33801  1.0000
  C   C141      1.0  0.85103  0.52130  0.32642  1.0000
  C   C142      1.0  0.85707  0.49866  0.32300  1.0000
  C   C143      1.0  0.83475  0.46977  0.32413  1.0000
  C   C144      1.0  0.80650  0.46391  0.33932  1.0000
  H   H166      1.0  0.87774  0.50323  0.31661  1.0000
  H   H167      1.0  0.79019  0.44319  0.34251  1.0000
  H   H168      1.0  0.81767  0.53062  0.34038  1.0000
  C   C145      1.0  0.52626  0.31655  0.34812  1.0000
  C   C146      1.0  0.49786  0.31040  0.33792  1.0000
  C   C147      1.0  0.49106  0.33223  0.32624  1.0000
  C   C148      1.0  0.51370  0.36090  0.32288  1.0000
  C   C149      1.0  0.54259  0.36747  0.32390  1.0000
  C   C150      1.0  0.54844  0.34507  0.33920  1.0000
  H   H169      1.0  0.50913  0.37700  0.31655  1.0000
  H   H170      1.0  0.56916  0.34948  0.34241  1.0000
  H   H171      1.0  0.48173  0.28954  0.34033  1.0000
  C   C151      1.0  0.69578  0.21214  0.34824  1.0000
  C   C152      1.0  0.70190  0.18987  0.33804  1.0000
  C   C153      1.0  0.68006  0.16125  0.32638  1.0000
  C   C154      1.0  0.65140  0.15523  0.32296  1.0000
  C   C155      1.0  0.64485  0.17756  0.32410  1.0000
  C   C156      1.0  0.66725  0.20580  0.33935  1.0000
  H   H172      1.0  0.63528  0.13456  0.31661  1.0000
  H   H173      1.0  0.66286  0.22213  0.34255  1.0000
  H   H174      1.0  0.72276  0.19459  0.34038  1.0000
  C   C157      1.0  0.52658  0.21414  0.33741  1.0000
  C   C158      1.0  0.49798  0.19210  0.34404  1.0000
  C   C159      1.0  0.49083  0.16326  0.35174  1.0000
  C   C160      1.0  0.51301  0.15661  0.34681  1.0000
  C   C161      1.0  0.54191  0.17849  0.33932  1.0000
  C   C162      1.0  0.54841  0.20722  0.33473  1.0000
  H   H175      1.0  0.50807  0.13573  0.34863  1.0000
  H   H176      1.0  0.56923  0.22331  0.33064  1.0000
  H   H177      1.0  0.48211  0.19722  0.34586  1.0000
  C   C163      1.0  0.69743  0.48583  0.33736  1.0000
  C   C164      1.0  0.70394  0.51441  0.34412  1.0000
  C   C165      1.0  0.68222  0.52151  0.35184  1.0000
  C   C166      1.0  0.65339  0.49930  0.34689  1.0000
  C   C167      1.0  0.64642  0.47042  0.33928  1.0000
  C   C168      1.0  0.66868  0.46396  0.33464  1.0000
  H   H178      1.0  0.63744  0.50421  0.34875  1.0000
  H   H179      1.0  0.66398  0.44315  0.33047  1.0000
  H   H180      1.0  0.72491  0.53030  0.34601  1.0000
  C   C169      1.0  0.79821  0.31490  0.33751  1.0000
  C   C170      1.0  0.82027  0.30838  0.34426  1.0000
  C   C171      1.0  0.84910  0.33009  0.35186  1.0000
  C   C172      1.0  0.85572  0.35892  0.34689  1.0000
  C   C173      1.0  0.83381  0.36590  0.33932  1.0000
  C   C174      1.0  0.80509  0.34364  0.33468  1.0000
  H   H181      1.0  0.87659  0.37487  0.34871  1.0000
  H   H182      1.0  0.78899  0.34835  0.33057  1.0000
  H   H183      1.0  0.81519  0.28740  0.34613  1.0000
  C   C175      1.0  0.48820  0.79573  0.33755  1.0000
  C   C176      1.0  0.51680  0.81774  0.34422  1.0000
  C   C177      1.0  0.52398  0.84659  0.35188  1.0000
  C   C178      1.0  0.50183  0.85328  0.34688  1.0000
  C   C179      1.0  0.47292  0.83142  0.33936  1.0000
  C   C180      1.0  0.46638  0.80268  0.33478  1.0000
  H   H184      1.0  0.50679  0.87417  0.34865  1.0000
  H   H185      1.0  0.44556  0.78661  0.33069  1.0000
  H   H186      1.0  0.53266  0.81261  0.34601  1.0000
  C   C181      1.0  0.31738  0.52404  0.33735  1.0000
  C   C182      1.0  0.31084  0.49545  0.34412  1.0000
  C   C183      1.0  0.33254  0.48832  0.35193  1.0000
  C   C184      1.0  0.36138  0.51052  0.34694  1.0000
  C   C185      1.0  0.36838  0.53941  0.33927  1.0000
  C   C186      1.0  0.34613  0.54589  0.33459  1.0000
  H   H187      1.0  0.37732  0.50560  0.34885  1.0000
  H   H188      1.0  0.35085  0.56670  0.33045  1.0000
  H   H189      1.0  0.28987  0.47957  0.34607  1.0000
  C   C187      1.0  0.21661  0.69498  0.33752  1.0000
  C   C188      1.0  0.19456  0.70152  0.34423  1.0000
  C   C189      1.0  0.16573  0.67982  0.35191  1.0000
  C   C190      1.0  0.15909  0.65099  0.34684  1.0000
  C   C191      1.0  0.18099  0.64399  0.33928  1.0000
  C   C192      1.0  0.20972  0.66623  0.33474  1.0000
  H   H190      1.0  0.13822  0.63504  0.34865  1.0000
  H   H191      1.0  0.22581  0.66151  0.33063  1.0000
  H   H192      1.0  0.19966  0.72250  0.34620  1.0000
  C   C193      1.0  0.10641  0.36991  0.34191  1.0000
  C   C194      1.0  0.12653  0.36058  0.34053  1.0000
  C   C195      1.0  0.11805  0.33127  0.34181  1.0000
  C   C196      1.0  0.08833  0.31106  0.34327  1.0000
  C   C197      1.0  0.06749  0.31977  0.34461  1.0000
  C   C198      1.0  0.07707  0.34939  0.34461  1.0000
  H   H193      1.0  0.08182  0.28978  0.34499  1.0000
  H   H194      1.0  0.06247  0.35617  0.34538  1.0000
  H   H195      1.0  0.14784  0.37550  0.33932  1.0000
  C   C199      1.0  0.64242  0.73894  0.34181  1.0000
  C   C200      1.0  0.65174  0.76840  0.34043  1.0000
  C   C201      1.0  0.68105  0.78922  0.34174  1.0000
  C   C202      1.0  0.70126  0.77973  0.34331  1.0000
  C   C203      1.0  0.69256  0.75017  0.34459  1.0000
  C   C204      1.0  0.66295  0.73013  0.34457  1.0000
  H   H196      1.0  0.72254  0.79450  0.34504  1.0000
  H   H197      1.0  0.65616  0.70875  0.34534  1.0000
  H   H198      1.0  0.63682  0.77478  0.33919  1.0000
  C   C205      1.0  0.27335  0.90588  0.34177  1.0000
  C   C206      1.0  0.24389  0.88578  0.34024  1.0000
  C   C207      1.0  0.22308  0.89428  0.34169  1.0000
  C   C208      1.0  0.23261  0.92401  0.34333  1.0000
  C   C209      1.0  0.26218  0.94483  0.34475  1.0000
  C   C210      1.0  0.28219  0.93523  0.34473  1.0000
  H   H199      1.0  0.21786  0.93054  0.34507  1.0000
  H   H200      1.0  0.30358  0.94981  0.34558  1.0000
  H   H201      1.0  0.23748  0.86446  0.33888  1.0000
  C   C211      1.0  0.90839  0.63999  0.34198  1.0000
  C   C212      1.0  0.88828  0.64934  0.34054  1.0000
  C   C213      1.0  0.89677  0.67864  0.34186  1.0000
  C   C214      1.0  0.92649  0.69885  0.34333  1.0000
  C   C215      1.0  0.94733  0.69012  0.34472  1.0000
  C   C216      1.0  0.93774  0.66051  0.34474  1.0000
  H   H202      1.0  0.93302  0.72013  0.34500  1.0000
  H   H203      1.0  0.95233  0.65371  0.34557  1.0000
  H   H204      1.0  0.86696  0.63442  0.33926  1.0000
  C   C217      1.0  0.37238  0.27092  0.34194  1.0000
  C   C218      1.0  0.36306  0.24147  0.34064  1.0000
  C   C219      1.0  0.33376  0.22063  0.34200  1.0000
  C   C220      1.0  0.31354  0.23012  0.34348  1.0000
  C   C221      1.0  0.32224  0.25968  0.34472  1.0000
  C   C222      1.0  0.35185  0.27972  0.34468  1.0000
  H   H205      1.0  0.29226  0.21535  0.34523  1.0000
  H   H206      1.0  0.35863  0.30111  0.34540  1.0000
  H   H207      1.0  0.37800  0.23509  0.33940  1.0000
  C   C223      1.0  0.74147  0.10395  0.34192  1.0000
  C   C224      1.0  0.77092  0.12408  0.34050  1.0000
  C   C225      1.0  0.79175  0.11560  0.34180  1.0000
  C   C226      1.0  0.78224  0.08588  0.34323  1.0000
  C   C227      1.0  0.75268  0.06503  0.34465  1.0000
  C   C228      1.0  0.73265  0.07461  0.34472  1.0000
  H   H208      1.0  0.79701  0.07936  0.34494  1.0000
  H   H209      1.0  0.71127  0.06001  0.34551  1.0000
  H   H210      1.0  0.77732  0.14539  0.33922  1.0000
  C   C229      1.0  0.37200  0.10487  0.34081  1.0000
  C   C230      1.0  0.36260  0.12491  0.34508  1.0000
  C   C231      1.0  0.33344  0.11647  0.35565  1.0000
  C   C232      1.0  0.31342  0.08665  0.35883  1.0000
  C   C233      1.0  0.32220  0.06581  0.35742  1.0000
  C   C234      1.0  0.35163  0.07553  0.34495  1.0000
  H   H211      1.0  0.29219  0.08004  0.36458  1.0000
  H   H212      1.0  0.35855  0.06104  0.34321  1.0000
  H   H213      1.0  0.37749  0.14622  0.34322  1.0000
  C   C235      1.0  0.74271  0.64031  0.34092  1.0000
  C   C236      1.0  0.77214  0.64969  0.34509  1.0000
  C   C237      1.0  0.79289  0.67885  0.35567  1.0000
  C   C238      1.0  0.78312  0.69889  0.35881  1.0000
  C   C239      1.0  0.75349  0.69013  0.35742  1.0000
  C   C240      1.0  0.73376  0.66070  0.34513  1.0000
  H   H214      1.0  0.79775  0.72012  0.36438  1.0000
  H   H215      1.0  0.71236  0.65379  0.34337  1.0000
  H   H216      1.0  0.77855  0.63479  0.34317  1.0000
  C   C241      1.0  0.90748  0.26966  0.34086  1.0000
  C   C242      1.0  0.88742  0.24023  0.34503  1.0000
  C   C243      1.0  0.89583  0.21949  0.35566  1.0000
  C   C244      1.0  0.92564  0.22925  0.35879  1.0000
  C   C245      1.0  0.94650  0.25887  0.35743  1.0000
  C   C246      1.0  0.93681  0.27860  0.34510  1.0000
  H   H217      1.0  0.93223  0.21462  0.36439  1.0000
  H   H218      1.0  0.95131  0.30001  0.34333  1.0000
  H   H219      1.0  0.86610  0.23382  0.34311  1.0000
  C   C247      1.0  0.64281  0.90500  0.34084  1.0000
  C   C248      1.0  0.65219  0.88496  0.34509  1.0000
  C   C249      1.0  0.68136  0.89339  0.35565  1.0000
  C   C250      1.0  0.70138  0.92321  0.35881  1.0000
  C   C251      1.0  0.69261  0.94405  0.35742  1.0000
  C   C252      1.0  0.66317  0.93434  0.34502  1.0000
  H   H220      1.0  0.72262  0.92982  0.36439  1.0000
  H   H221      1.0  0.65626  0.94883  0.34323  1.0000
  H   H222      1.0  0.63730  0.86364  0.34316  1.0000
  C   C253      1.0  0.27206  0.36952  0.34102  1.0000
  C   C254      1.0  0.24263  0.36014  0.34514  1.0000
  C   C255      1.0  0.22189  0.33098  0.35564  1.0000
  C   C256      1.0  0.23167  0.31094  0.35885  1.0000
  C   C257      1.0  0.26129  0.31971  0.35751  1.0000
  C   C258      1.0  0.28102  0.34914  0.34519  1.0000
  H   H223      1.0  0.21704  0.28971  0.36441  1.0000
  H   H224      1.0  0.30242  0.35605  0.34346  1.0000
  H   H225      1.0  0.23622  0.37504  0.34318  1.0000
  C   C259      1.0  0.10735  0.74024  0.34092  1.0000
  C   C260      1.0  0.12739  0.76967  0.34504  1.0000
  C   C261      1.0  0.11896  0.79041  0.35546  1.0000
  C   C262      1.0  0.08914  0.78062  0.35875  1.0000
  C   C263      1.0  0.06829  0.75099  0.35749  1.0000
  C   C264      1.0  0.07801  0.73127  0.34517  1.0000
  H   H226      1.0  0.08253  0.79524  0.36429  1.0000
  H   H227      1.0  0.06352  0.70987  0.34336  1.0000
  H   H228      1.0  0.14871  0.77610  0.34307  1.0000
  C   C265      1.0  0.13393  0.44475  0.40777  1.0000
  N   N37       1.0  0.12085  0.41580  0.41333  1.0000
  C   C266      1.0  0.11605  0.39953  0.33863  1.0000
  O   O25       1.0  0.13987  0.45960  0.48597  1.0000
  H   H229      1.0  0.11612  0.40676  0.47244  1.0000
  C   C267      1.0  0.56761  0.69156  0.40782  1.0000
  N   N38       1.0  0.59656  0.70742  0.41329  1.0000
  C   C268      1.0  0.61279  0.71896  0.33856  1.0000
  O   O26       1.0  0.55277  0.68263  0.48602  1.0000
  H   H230      1.0  0.60562  0.71169  0.47237  1.0000
  C   C269      1.0  0.32080  0.87852  0.40760  1.0000
  N   N39       1.0  0.30492  0.89159  0.41313  1.0000
  C   C270      1.0  0.29331  0.89621  0.33845  1.0000
  O   O27       1.0  0.32974  0.87263  0.48583  1.0000
  H   H231      1.0  0.30059  0.89630  0.47224  1.0000
  C   C271      1.0  0.88091  0.56515  0.40782  1.0000
  N   N40       1.0  0.89402  0.59411  0.41337  1.0000
  C   C272      1.0  0.89874  0.61037  0.33867  1.0000
  O   O28       1.0  0.87496  0.55030  0.48602  1.0000
  H   H232      1.0  0.89872  0.60315  0.47248  1.0000
  C   C273      1.0  0.44721  0.31827  0.40782  1.0000
  N   N41       1.0  0.41826  0.30243  0.41335  1.0000
  C   C274      1.0  0.40200  0.29091  0.33864  1.0000
  O   O29       1.0  0.46207  0.32719  0.48598  1.0000
  H   H233      1.0  0.40922  0.29813  0.47246  1.0000
  C   C275      1.0  0.69407  0.13138  0.40772  1.0000
  N   N42       1.0  0.70995  0.11831  0.41330  1.0000
  C   C276      1.0  0.72148  0.11359  0.33862  1.0000
  O   O30       1.0  0.68515  0.13730  0.48593  1.0000
  H   H234      1.0  0.71426  0.11359  0.47242  1.0000
  C   C277      1.0  0.44421  0.13551  0.43436  1.0000
  C   C278      1.0  0.46125  0.14240  0.35446  1.0000
  N   N43       1.0  0.41539  0.12227  0.42190  1.0000
  C   C279      1.0  0.45470  0.14114  0.53159  1.0000
  C   C280      1.0  0.42931  0.12957  0.60102  1.0000
  H   H235      1.0  0.41693  0.14030  0.59213  1.0000
  H   H236      1.0  0.41495  0.10667  0.59245  1.0000
  C   C281      1.0  0.47405  0.17370  0.55212  1.0000
  H   H237      1.0  0.46433  0.18573  0.52621  1.0000
  H   H238      1.0  0.49519  0.18230  0.52281  1.0000
  H   H239      1.0  0.47735  0.17771  0.62447  1.0000
  C   C282      1.0  0.47141  0.12515  0.55233  1.0000
  H   H240      1.0  0.45828  0.10242  0.53770  1.0000
  H   H241      1.0  0.47771  0.12748  0.62313  1.0000
  H   H242      1.0  0.49083  0.13351  0.51257  1.0000
  C   C283      1.0  0.70108  0.56812  0.43459  1.0000
  C   C284      1.0  0.69087  0.55107  0.35473  1.0000
  N   N44       1.0  0.71669  0.59693  0.42213  1.0000
  C   C285      1.0  0.69621  0.55762  0.53180  1.0000
  C   C286      1.0  0.71004  0.58299  0.60125  1.0000
  H   H243      1.0  0.73315  0.59536  0.59239  1.0000
  H   H244      1.0  0.70152  0.59736  0.59269  1.0000
  C   C287      1.0  0.70941  0.53824  0.55230  1.0000
  H   H245      1.0  0.73116  0.54796  0.52641  1.0000
  H   H246      1.0  0.69686  0.51711  0.52293  1.0000
  H   H247      1.0  0.71010  0.53492  0.62464  1.0000
  C   C288      1.0  0.66351  0.54091  0.55252  1.0000
  H   H248      1.0  0.65392  0.55406  0.53794  1.0000
  H   H249      1.0  0.65953  0.53460  0.62330  1.0000
  H   H250      1.0  0.65245  0.52151  0.51271  1.0000
  C   C289      1.0  0.87690  0.31127  0.43453  1.0000
  C   C290      1.0  0.87001  0.32143  0.35469  1.0000
  N   N45       1.0  0.89014  0.29570  0.42202  1.0000
  C   C291      1.0  0.87130  0.31615  0.53177  1.0000
  C   C292      1.0  0.88290  0.30235  0.60117  1.0000
  H   H251      1.0  0.87217  0.27924  0.59233  1.0000
  H   H252      1.0  0.90579  0.31090  0.59254  1.0000
  C   C293      1.0  0.83874  0.30294  0.55237  1.0000
  H   H253      1.0  0.82671  0.28117  0.52653  1.0000
  H   H254      1.0  0.83013  0.31546  0.52303  1.0000
  H   H255      1.0  0.83475  0.30225  0.62472  1.0000
  C   C294      1.0  0.88728  0.34885  0.55243  1.0000
  H   H256      1.0  0.91002  0.35847  0.53776  1.0000
  H   H257      1.0  0.88497  0.35284  0.62322  1.0000
  H   H258      1.0  0.87890  0.35989  0.51266  1.0000
  C   C295      1.0  0.57060  0.87435  0.43444  1.0000
  C   C296      1.0  0.55357  0.86743  0.35451  1.0000
  N   N46       1.0  0.59942  0.88761  0.42197  1.0000
  C   C297      1.0  0.56012  0.86873  0.53169  1.0000
  C   C298      1.0  0.58550  0.88032  0.60109  1.0000
  H   H259      1.0  0.59790  0.86960  0.59223  1.0000
  H   H260      1.0  0.59985  0.90321  0.59250  1.0000
  C   C299      1.0  0.54078  0.83616  0.55225  1.0000
  H   H261      1.0  0.55051  0.82414  0.52633  1.0000
  H   H262      1.0  0.51963  0.82755  0.52296  1.0000
  H   H263      1.0  0.53748  0.83215  0.62460  1.0000
  C   C300      1.0  0.54338  0.88469  0.55240  1.0000
  H   H264      1.0  0.55650  0.90743  0.53773  1.0000
  H   H265      1.0  0.53710  0.88238  0.62322  1.0000
  H   H266      1.0  0.52396  0.87631  0.51268  1.0000
  C   C301      1.0  0.31368  0.44171  0.43469  1.0000
  C   C302      1.0  0.32388  0.45876  0.35483  1.0000
  N   N47       1.0  0.29807  0.41290  0.42222  1.0000
  C   C303      1.0  0.31854  0.45221  0.53190  1.0000
  C   C304      1.0  0.30472  0.42684  0.60135  1.0000
  H   H267      1.0  0.28161  0.41446  0.59247  1.0000
  H   H268      1.0  0.31325  0.41247  0.59281  1.0000
  C   C305      1.0  0.30533  0.47158  0.55236  1.0000
  H   H269      1.0  0.28357  0.46184  0.52648  1.0000
  H   H270      1.0  0.31787  0.49270  0.52297  1.0000
  H   H271      1.0  0.30464  0.47490  0.62470  1.0000
  C   C306      1.0  0.35123  0.46893  0.55263  1.0000
  H   H272      1.0  0.36084  0.45580  0.53807  1.0000
  H   H273      1.0  0.35521  0.47524  0.62342  1.0000
  H   H274      1.0  0.36229  0.48833  0.51282  1.0000
  C   C307      1.0  0.13794  0.69864  0.43457  1.0000
  C   C308      1.0  0.14485  0.68851  0.35468  1.0000
  N   N48       1.0  0.12470  0.71421  0.42206  1.0000
  C   C309      1.0  0.14356  0.69377  0.53180  1.0000
  C   C310      1.0  0.13195  0.70754  0.60121  1.0000
  H   H275      1.0  0.14266  0.73066  0.59238  1.0000
  H   H276      1.0  0.10905  0.69899  0.59259  1.0000
  C   C311      1.0  0.17612  0.70701  0.55238  1.0000
  H   H277      1.0  0.18814  0.72877  0.52654  1.0000
  H   H278      1.0  0.18475  0.69449  0.52302  1.0000
  H   H279      1.0  0.18012  0.70769  0.62473  1.0000
  C   C312      1.0  0.12760  0.66107  0.55246  1.0000
  H   H280      1.0  0.10487  0.65143  0.53780  1.0000
  H   H281      1.0  0.12992  0.65708  0.62326  1.0000
  H   H282      1.0  0.13599  0.65004  0.51270  1.0000
  C   C313      1.0  0.25705  0.52771  0.43124  1.0000
  C   C314      1.0  0.24320  0.52935  0.35122  1.0000
  N   N49       1.0  0.28192  0.52761  0.41882  1.0000
  C   C315      1.0  0.24683  0.52517  0.52815  1.0000
  C   C316      1.0  0.26916  0.52586  0.59773  1.0000
  H   H283      1.0  0.27263  0.50786  0.58717  1.0000
  H   H284      1.0  0.28966  0.54552  0.59103  1.0000
  C   C317      1.0  0.21851  0.49636  0.54389  1.0000
  H   H285      1.0  0.21975  0.47862  0.51379  1.0000
  H   H286      1.0  0.20021  0.49683  0.51581  1.0000
  H   H287      1.0  0.21417  0.49189  0.61562  1.0000
  C   C318      1.0  0.24252  0.55085  0.55279  1.0000
  H   H288      1.0  0.26182  0.57110  0.53852  1.0000
  H   H289      1.0  0.23751  0.55048  0.62422  1.0000
  H   H290      1.0  0.22498  0.55030  0.51547  1.0000
  C   C319      1.0  0.48453  0.73171  0.43132  1.0000
  C   C320      1.0  0.48295  0.71627  0.35125  1.0000
  N   N50       1.0  0.48460  0.75667  0.41891  1.0000
  C   C321      1.0  0.48715  0.72407  0.52821  1.0000
  C   C322      1.0  0.48637  0.74565  0.59781  1.0000
  H   H291      1.0  0.50431  0.76716  0.58723  1.0000
  H   H292      1.0  0.46666  0.74640  0.59116  1.0000
  C   C323      1.0  0.51603  0.72470  0.54382  1.0000
  H   H293      1.0  0.53372  0.74372  0.51365  1.0000
  H   H294      1.0  0.51565  0.70598  0.51574  1.0000
  H   H295      1.0  0.52055  0.72488  0.61553  1.0000
  C   C324      1.0  0.46157  0.69403  0.55294  1.0000
  H   H296      1.0  0.44127  0.69297  0.53871  1.0000
  H   H297      1.0  0.46198  0.68942  0.62436  1.0000
  H   H298      1.0  0.46220  0.67708  0.51562  1.0000
  C   C325      1.0  0.28058  0.75536  0.43152  1.0000
  C   C326      1.0  0.29602  0.76922  0.35145  1.0000
  N   N51       1.0  0.25562  0.73048  0.41910  1.0000
  C   C327      1.0  0.28819  0.76564  0.52840  1.0000
  C   C328      1.0  0.26662  0.74326  0.59800  1.0000
  H   H299      1.0  0.24510  0.73967  0.58738  1.0000
  H   H300      1.0  0.26591  0.72282  0.59139  1.0000
  C   C329      1.0  0.28751  0.79386  0.54391  1.0000
  H   H301      1.0  0.26847  0.79248  0.51371  1.0000
  H   H302      1.0  0.30621  0.81222  0.51579  1.0000
  H   H303      1.0  0.28731  0.79822  0.61559  1.0000
  C   C330      1.0  0.31825  0.77015  0.55323  1.0000
  H   H304      1.0  0.31935  0.75093  0.53902  1.0000
  H   H305      1.0  0.32283  0.77517  0.62466  1.0000
  H   H306      1.0  0.33519  0.78775  0.51596  1.0000
  C   C331      1.0  0.75777  0.48216  0.43133  1.0000
  C   C332      1.0  0.77161  0.48052  0.35132  1.0000
  N   N52       1.0  0.73291  0.48226  0.41889  1.0000
  C   C333      1.0  0.76799  0.48471  0.52825  1.0000
  C   C334      1.0  0.74565  0.48400  0.59781  1.0000
  H   H307      1.0  0.74218  0.50200  0.58724  1.0000
  H   H308      1.0  0.72516  0.46434  0.59110  1.0000
  C   C335      1.0  0.79631  0.51352  0.54396  1.0000
  H   H309      1.0  0.79506  0.53126  0.51386  1.0000
  H   H310      1.0  0.81461  0.51306  0.51589  1.0000
  H   H311      1.0  0.80064  0.51800  0.61569  1.0000
  C   C336      1.0  0.77231  0.45903  0.55290  1.0000
  H   H312      1.0  0.75302  0.43878  0.53862  1.0000
  H   H313      1.0  0.77732  0.45941  0.62432  1.0000
  H   H314      1.0  0.78986  0.45959  0.51558  1.0000
  C   C337      1.0  0.53024  0.27813  0.43130  1.0000
  C   C338      1.0  0.53181  0.29357  0.35125  1.0000
  N   N53       1.0  0.53017  0.25318  0.41887  1.0000
  C   C339      1.0  0.52766  0.28578  0.52820  1.0000
  C   C340      1.0  0.52843  0.26419  0.59778  1.0000
  H   H315      1.0  0.51048  0.24269  0.58723  1.0000
  H   H316      1.0  0.54813  0.26343  0.59108  1.0000
  C   C341      1.0  0.49880  0.28519  0.54389  1.0000
  H   H317      1.0  0.48109  0.26616  0.51381  1.0000
  H   H318      1.0  0.49918  0.30391  0.51576  1.0000
  H   H319      1.0  0.49431  0.28504  0.61561  1.0000
  C   C342      1.0  0.55327  0.31581  0.55286  1.0000
  H   H320      1.0  0.57356  0.31685  0.53858  1.0000
  H   H321      1.0  0.55288  0.32043  0.62429  1.0000
  H   H322      1.0  0.55265  0.33277  0.51556  1.0000
  C   C343      1.0  0.73421  0.25451  0.43142  1.0000
  C   C344      1.0  0.71878  0.24066  0.35135  1.0000
  N   N54       1.0  0.75917  0.27940  0.41900  1.0000
  C   C345      1.0  0.72656  0.24427  0.52832  1.0000
  C   C346      1.0  0.74816  0.26663  0.59791  1.0000
  H   H323      1.0  0.76966  0.27017  0.58734  1.0000
  H   H324      1.0  0.74893  0.28710  0.59123  1.0000
  C   C347      1.0  0.72715  0.21600  0.54397  1.0000
  H   H325      1.0  0.74617  0.21732  0.51387  1.0000
  H   H326      1.0  0.70842  0.19767  0.51586  1.0000
  H   H327      1.0  0.72730  0.21166  0.61569  1.0000
  C   C348      1.0  0.69653  0.23986  0.55301  1.0000
  H   H328      1.0  0.69551  0.25912  0.53873  1.0000
  H   H329      1.0  0.69192  0.23486  0.62444  1.0000
  H   H330      1.0  0.67957  0.22229  0.51572  1.0000
  C   C349      1.0  0.17018  0.57359  0.40333  1.0000
  N   N55       1.0  0.17020  0.59873  0.40859  1.0000
  C   C350      1.0  0.17523  0.61543  0.33478  1.0000
  O   O31       1.0  0.16705  0.55919  0.48115  1.0000
  H   H331      1.0  0.16814  0.60556  0.46730  1.0000
  C   C351      1.0  0.43879  0.59899  0.40332  1.0000
  N   N56       1.0  0.41366  0.57385  0.40859  1.0000
  C   C352      1.0  0.39694  0.56221  0.33482  1.0000
  O   O32       1.0  0.45323  0.61024  0.48109  1.0000
  H   H332      1.0  0.40685  0.56494  0.46729  1.0000
  C   C353      1.0  0.41337  0.84228  0.40350  1.0000
  N   N57       1.0  0.43852  0.84230  0.40871  1.0000
  C   C354      1.0  0.45015  0.83723  0.33491  1.0000
  O   O33       1.0  0.40213  0.84546  0.48128  1.0000
  H   H333      1.0  0.44743  0.84440  0.46740  1.0000
  C   C355      1.0  0.84471  0.43634  0.40335  1.0000
  N   N58       1.0  0.84465  0.41117  0.40861  1.0000
  C   C356      1.0  0.83955  0.39445  0.33482  1.0000
  O   O34       1.0  0.84791  0.45076  0.48116  1.0000
  H   H334      1.0  0.84676  0.40436  0.46729  1.0000
  C   C357      1.0  0.57599  0.41087  0.40327  1.0000
  N   N59       1.0  0.60116  0.43597  0.40857  1.0000
  C   C358      1.0  0.61787  0.44760  0.33478  1.0000
  O   O35       1.0  0.56154  0.39963  0.48103  1.0000
  H   H335      1.0  0.60794  0.44491  0.46723  1.0000
  C   C359      1.0  0.60148  0.16765  0.40341  1.0000
  N   N60       1.0  0.57636  0.16769  0.40865  1.0000
  C   C360      1.0  0.56471  0.17273  0.33483  1.0000
  O   O36       1.0  0.61272  0.16449  0.48122  1.0000
  H   H336      1.0  0.56746  0.16560  0.46735  1.0000
  C   C361      1.0  0.99441  0.28260  0.43953  1.0000
  C   C362      1.0  0.97692  0.26991  0.36133  1.0000
  N   N61       1.0  0.02334  0.29707  0.42674  1.0000
  C   C363      1.0  0.98445  0.28067  0.53668  1.0000
  C   C364      1.0  0.00988  0.29827  0.60375  1.0000
  H   H337      1.0  0.02538  0.29096  0.60187  1.0000
  H   H338      1.0  0.02093  0.32091  0.58641  1.0000
  C   C365      1.0  0.97001  0.24894  0.56802  1.0000
  H   H339      1.0  0.98476  0.24078  0.56232  1.0000
  H   H340      1.0  0.95142  0.23555  0.52722  1.0000
  H   H341      1.0  0.96297  0.24667  0.63803  1.0000
  C   C366      1.0  0.96329  0.29221  0.54926  1.0000
  H   H342      1.0  0.97132  0.31271  0.51539  1.0000
  H   H343      1.0  0.96025  0.29519  0.62036  1.0000
  H   H344      1.0  0.94221  0.27739  0.52322  1.0000
  C   C367      1.0  0.72977  0.71431  0.43954  1.0000
  C   C368      1.0  0.74246  0.70951  0.36134  1.0000
  N   N62       1.0  0.71527  0.72875  0.42674  1.0000
  C   C369      1.0  0.73167  0.70625  0.53668  1.0000
  C   C370      1.0  0.71409  0.71410  0.60375  1.0000
  H   H345      1.0  0.72141  0.73691  0.60187  1.0000
  H   H346      1.0  0.69145  0.70253  0.58641  1.0000
  C   C371      1.0  0.76341  0.72352  0.56806  1.0000
  H   H347      1.0  0.77159  0.74644  0.56236  1.0000
  H   H348      1.0  0.77679  0.71830  0.52727  1.0000
  H   H349      1.0  0.76566  0.71875  0.63807  1.0000
  C   C372      1.0  0.72011  0.67356  0.54923  1.0000
  H   H350      1.0  0.69961  0.66109  0.51531  1.0000
  H   H351      1.0  0.71711  0.66753  0.62031  1.0000
  H   H352      1.0  0.73493  0.66729  0.52320  1.0000
  C   C373      1.0  0.29811  0.01793  0.43972  1.0000
  C   C374      1.0  0.30284  0.03538  0.36150  1.0000
  N   N63       1.0  0.28370  0.98900  0.42696  1.0000
  C   C375      1.0  0.30626  0.02792  0.53680  1.0000
  C   C376      1.0  0.29837  0.00249  0.60393  1.0000
  H   H353      1.0  0.27554  0.98707  0.60219  1.0000
  H   H354      1.0  0.30987  0.99135  0.58654  1.0000
  C   C377      1.0  0.28913  0.04251  0.56833  1.0000
  H   H355      1.0  0.26619  0.02787  0.56261  1.0000
  H   H356      1.0  0.29444  0.06116  0.52766  1.0000
  H   H357      1.0  0.29393  0.04951  0.63836  1.0000
  C   C378      1.0  0.33899  0.04896  0.54906  1.0000
  H   H358      1.0  0.35136  0.04084  0.51505  1.0000
  H   H359      1.0  0.34508  0.05201  0.62010  1.0000
  H   H360      1.0  0.34532  0.07006  0.52296  1.0000
  C   C379      1.0  0.02039  0.72724  0.43966  1.0000
  C   C380      1.0  0.03787  0.73994  0.36145  1.0000
  N   N64       1.0  0.99147  0.71278  0.42685  1.0000
  C   C381      1.0  0.03037  0.72912  0.53677  1.0000
  C   C382      1.0  0.00492  0.71161  0.60387  1.0000
  H   H361      1.0  0.98950  0.71901  0.60203  1.0000
  H   H362      1.0  0.99378  0.68896  0.58654  1.0000
  C   C383      1.0  0.04495  0.76085  0.56818  1.0000
  H   H363      1.0  0.03031  0.76914  0.56235  1.0000
  H   H364      1.0  0.06361  0.77418  0.52753  1.0000
  H   H365      1.0  0.05193  0.76307  0.63824  1.0000
  C   C384      1.0  0.05141  0.71744  0.54921  1.0000
  H   H366      1.0  0.04330  0.69693  0.51526  1.0000
  H   H367      1.0  0.05443  0.71441  0.62029  1.0000
  H   H368      1.0  0.07251  0.73219  0.52316  1.0000
  C   C385      1.0  0.28502  0.29553  0.43968  1.0000
  C   C386      1.0  0.27231  0.30031  0.36150  1.0000
  N   N65       1.0  0.29953  0.28111  0.42690  1.0000
  C   C387      1.0  0.28313  0.30362  0.53681  1.0000
  C   C388      1.0  0.30067  0.29571  0.60392  1.0000
  H   H369      1.0  0.29329  0.27289  0.60206  1.0000
  H   H370      1.0  0.32331  0.30724  0.58660  1.0000
  C   C389      1.0  0.25140  0.28642  0.56819  1.0000
  H   H371      1.0  0.24314  0.26349  0.56241  1.0000
  H   H372      1.0  0.23805  0.29171  0.52747  1.0000
  H   H373      1.0  0.24916  0.29119  0.63823  1.0000
  C   C390      1.0  0.29477  0.33633  0.54928  1.0000
  H   H374      1.0  0.31528  0.34874  0.51537  1.0000
  H   H375      1.0  0.29778  0.34237  0.62036  1.0000
  H   H376      1.0  0.28000  0.34265  0.52322  1.0000
  C   C391      1.0  0.71673  0.99196  0.43954  1.0000
  C   C392      1.0  0.71198  0.97447  0.36136  1.0000
  N   N66       1.0  0.73119  0.02088  0.42676  1.0000
  C   C393      1.0  0.70864  0.98199  0.53666  1.0000
  C   C394      1.0  0.71650  0.00743  0.60373  1.0000
  H   H377      1.0  0.73931  0.02289  0.60193  1.0000
  H   H378      1.0  0.70495  0.01852  0.58634  1.0000
  C   C395      1.0  0.72586  0.96748  0.56814  1.0000
  H   H379      1.0  0.74878  0.98218  0.56240  1.0000
  H   H380      1.0  0.72060  0.94885  0.52744  1.0000
  H   H381      1.0  0.72108  0.96048  0.63817  1.0000
  C   C396      1.0  0.67593  0.96088  0.54910  1.0000
  H   H382      1.0  0.66350  0.96894  0.51512  1.0000
  H   H383      1.0  0.66987  0.95785  0.62017  1.0000
  H   H384      1.0  0.66964  0.93979  0.52308  1.0000
  C   C397      1.0  0.17847  0.32651  0.43740  1.0000
  C   C398      1.0  0.19238  0.32385  0.35861  1.0000
  N   N67       1.0  0.15353  0.32671  0.42446  1.0000
  C   C399      1.0  0.18766  0.32770  0.53508  1.0000
  C   C400      1.0  0.16892  0.33380  0.60272  1.0000
  H   H385      1.0  0.17086  0.35450  0.58860  1.0000
  H   H386      1.0  0.14640  0.31754  0.59783  1.0000
  C   C401      1.0  0.21927  0.35146  0.55322  1.0000
  H   H387      1.0  0.22354  0.37169  0.52369  1.0000
  H   H388      1.0  0.23438  0.34574  0.52609  1.0000
  H   H389      1.0  0.22383  0.35488  0.62527  1.0000
  C   C402      1.0  0.18341  0.29783  0.56044  1.0000
  H   H390      1.0  0.16093  0.28141  0.55618  1.0000
  H   H391      1.0  0.19076  0.29781  0.62897  1.0000
  H   H392      1.0  0.19516  0.29169  0.51507  1.0000
  C   C403      1.0  0.68589  0.85447  0.43745  1.0000
  C   C404      1.0  0.68851  0.87103  0.35868  1.0000
  N   N68       1.0  0.68567  0.82932  0.42447  1.0000
  C   C405      1.0  0.68471  0.86247  0.53512  1.0000
  C   C406      1.0  0.67866  0.83764  0.60278  1.0000
  H   H393      1.0  0.65796  0.81886  0.58871  1.0000
  H   H394      1.0  0.69494  0.83142  0.59785  1.0000
  C   C407      1.0  0.66091  0.87027  0.55327  1.0000
  H   H395      1.0  0.64069  0.85428  0.52378  1.0000
  H   H396      1.0  0.66660  0.89109  0.52611  1.0000
  H   H397      1.0  0.65750  0.87142  0.62533  1.0000
  C   C408      1.0  0.71457  0.88813  0.56042  1.0000
  H   H398      1.0  0.73101  0.88210  0.55613  1.0000
  H   H399      1.0  0.71458  0.89549  0.62895  1.0000
  H   H400      1.0  0.72067  0.90601  0.51505  1.0000
  C   C409      1.0  0.15786  0.83389  0.43727  1.0000
  C   C410      1.0  0.14132  0.81993  0.35851  1.0000
  N   N69       1.0  0.18298  0.85884  0.42426  1.0000
  C   C411      1.0  0.14985  0.82473  0.53495  1.0000
  C   C412      1.0  0.17468  0.84350  0.60257  1.0000
  H   H401      1.0  0.19345  0.84155  0.58853  1.0000
  H   H402      1.0  0.18093  0.86601  0.59761  1.0000
  C   C413      1.0  0.14200  0.79313  0.55320  1.0000
  H   H403      1.0  0.15797  0.78885  0.52378  1.0000
  H   H404      1.0  0.12118  0.77801  0.52603  1.0000
  H   H405      1.0  0.14083  0.78858  0.62527  1.0000
  C   C414      1.0  0.12421  0.82898  0.56017  1.0000
  H   H406      1.0  0.13028  0.85146  0.55583  1.0000
  H   H407      1.0  0.11684  0.82166  0.62871  1.0000
  H   H408      1.0  0.10633  0.81722  0.51478  1.0000
  C   C415      1.0  0.83633  0.68336  0.43741  1.0000
  C   C416      1.0  0.82239  0.68594  0.35858  1.0000
  N   N70       1.0  0.86129  0.68321  0.42440  1.0000
  C   C417      1.0  0.82712  0.68211  0.53509  1.0000
  C   C418      1.0  0.84591  0.67605  0.60267  1.0000
  H   H409      1.0  0.84402  0.65538  0.58849  1.0000
  H   H410      1.0  0.86840  0.69236  0.59782  1.0000
  C   C419      1.0  0.79553  0.65828  0.55315  1.0000
  H   H411      1.0  0.79132  0.63807  0.52354  1.0000
  H   H412      1.0  0.78039  0.66395  0.52607  1.0000
  H   H413      1.0  0.79096  0.65482  0.62519  1.0000
  C   C420      1.0  0.83128  0.71194  0.56055  1.0000
  H   H414      1.0  0.85374  0.72840  0.55636  1.0000
  H   H415      1.0  0.82391  0.71191  0.62907  1.0000
  H   H416      1.0  0.81951  0.71805  0.51519  1.0000
  C   C421      1.0  0.32891  0.15537  0.43764  1.0000
  C   C422      1.0  0.32628  0.13883  0.35883  1.0000
  N   N71       1.0  0.32914  0.18053  0.42474  1.0000
  C   C423      1.0  0.33007  0.14733  0.53529  1.0000
  C   C424      1.0  0.33617  0.17216  0.60300  1.0000
  H   H417      1.0  0.35689  0.19092  0.58896  1.0000
  H   H418      1.0  0.31992  0.17842  0.59814  1.0000
  C   C425      1.0  0.35382  0.13947  0.55338  1.0000
  H   H419      1.0  0.37406  0.15544  0.52394  1.0000
  H   H420      1.0  0.34810  0.11865  0.52614  1.0000
  H   H421      1.0  0.35722  0.13828  0.62543  1.0000
  C   C426      1.0  0.30019  0.12170  0.56053  1.0000
  H   H422      1.0  0.28378  0.12779  0.55634  1.0000
  H   H423      1.0  0.30016  0.11431  0.62903  1.0000
  H   H424      1.0  0.29404  0.10384  0.51507  1.0000
  C   C427      1.0  0.85688  0.17604  0.43742  1.0000
  C   C428      1.0  0.87343  0.18997  0.35866  1.0000
  N   N72       1.0  0.83177  0.15108  0.42439  1.0000
  C   C429      1.0  0.86483  0.18525  0.53510  1.0000
  C   C430      1.0  0.83998  0.16647  0.60267  1.0000
  H   H425      1.0  0.82119  0.16835  0.58846  1.0000
  H   H426      1.0  0.83379  0.14397  0.59782  1.0000
  C   C431      1.0  0.87259  0.21684  0.55315  1.0000
  H   H427      1.0  0.85659  0.22105  0.52354  1.0000
  H   H428      1.0  0.89341  0.23198  0.52605  1.0000
  H   H429      1.0  0.87370  0.22141  0.62519  1.0000
  C   C432      1.0  0.89050  0.18109  0.56059  1.0000
  H   H430      1.0  0.88449  0.15863  0.55638  1.0000
  H   H431      1.0  0.89783  0.18845  0.62913  1.0000
  H   H432      1.0  0.90839  0.19287  0.51526  1.0000
