data_image0
_chemical_formula_structural       C4HNO2C4HNO2C4HNO2C4HNO2C2H2C2H2C2H2C2H2C2H2C2H2C2H2C2H2C4HNO2C4HNO2C4HNO2C4HNO2C4HNO2C4HNO2C4HNO2C4HNO2C2H2C2H2C2H2C2H2C2H2C2H2C2H2C2H2C2H2C2H2C6H3C6H3C6H3C6H3C6H3C6H3C6H3C6H3C6H3C6H3C6H3C6H3C6H3C6H3C6H3C6H3C6H3C6H3C6H3C6H3C2H2C2H2C2H2C2H2C4HNO2C4HNO2C4HNO2C4HNO2C4HNO2C4HNO2C4HNO2C4HNO2C2H2C2H2C2H2C2H2C2H2C2H2C2H2C2H2C4HNO2C4HNO2C4HNO2C4HNO2C4HNO2C4HNO2C4HNO2C4HNO2C4HNO2C4HNO2
_chemical_formula_sum              "C300 H150 N30 O60"
_cell_length_a       44.2895
_cell_length_b       44.2895
_cell_length_c       14.8564
_cell_angle_alpha    90
_cell_angle_beta     90
_cell_angle_gamma    90

_space_group_name_H-M_alt    "P 1"
_space_group_IT_number       1

loop_
  _space_group_symop_operation_xyz
  'x, y, z'

loop_
  _atom_site_type_symbol
  _atom_site_label
  _atom_site_symmetry_multiplicity
  _atom_site_fract_x
  _atom_site_fract_y
  _atom_site_fract_z
  _atom_site_occupancy
  C   C1        1.0  0.37568  0.05514  0.34156  1.0000
  C   C2        1.0  0.36277  0.04113  0.26543  1.0000
  C   C3        1.0  0.33177  0.03343  0.26359  1.0000
  C   C4        1.0  0.31380  0.03929  0.34073  1.0000
  H   H1        1.0  0.37571  0.03740  0.20934  1.0000
  N   N1        1.0  0.31825  0.02140  0.18499  1.0000
  O   O1        1.0  0.33056  0.99708  0.16171  1.0000
  O   O2        1.0  0.31983  0.03970  0.12051  1.0000
  C   C5        1.0  0.63428  0.95432  0.33852  1.0000
  C   C6        1.0  0.64657  0.97064  0.26564  1.0000
  C   C7        1.0  0.67752  0.97857  0.26370  1.0000
  C   C8        1.0  0.69620  0.97044  0.33749  1.0000
  H   H2        1.0  0.63317  0.97607  0.21181  1.0000
  N   N2        1.0  0.69022  0.99315  0.18777  1.0000
  O   O3        1.0  0.67736  0.01790  0.17225  1.0000
  O   O4        1.0  0.68824  0.97692  0.11865  1.0000
  C   C9        1.0  0.95454  0.37574  0.34155  1.0000
  C   C10       1.0  0.96886  0.36292  0.26581  1.0000
  C   C11       1.0  0.97662  0.33193  0.26399  1.0000
  C   C12       1.0  0.97049  0.31388  0.34079  1.0000
  H   H3        1.0  0.97277  0.37590  0.20995  1.0000
  N   N3        1.0  0.98895  0.31850  0.18567  1.0000
  O   O5        1.0  0.01332  0.33090  0.16324  1.0000
  O   O6        1.0  0.97087  0.32011  0.12063  1.0000
  C   C13       1.0  0.05535  0.63433  0.33851  1.0000
  C   C14       1.0  0.03919  0.64668  0.26539  1.0000
  C   C15       1.0  0.03132  0.67764  0.26344  1.0000
  C   C16       1.0  0.03934  0.69627  0.33746  1.0000
  H   H4        1.0  0.03385  0.63331  0.21142  1.0000
  N   N4        1.0  0.01692  0.69041  0.18732  1.0000
  O   O7        1.0  0.99218  0.67761  0.17128  1.0000
  O   O8        1.0  0.03329  0.68844  0.11849  1.0000
  C   C17       1.0  0.18379  0.55809  0.27993  1.0000
  C   C18       1.0  0.15321  0.56622  0.27941  1.0000
  H   H5        1.0  0.19728  0.56573  0.22877  1.0000
  H   H6        1.0  0.14524  0.57931  0.22780  1.0000
  C   C19       1.0  0.82557  0.45137  0.27591  1.0000
  C   C20       1.0  0.85616  0.44321  0.27505  1.0000
  H   H7        1.0  0.81198  0.44355  0.22527  1.0000
  H   H8        1.0  0.86405  0.42992  0.22379  1.0000
  C   C21       1.0  0.55804  0.82583  0.28002  1.0000
  C   C22       1.0  0.56619  0.85641  0.27954  1.0000
  H   H9        1.0  0.56567  0.81236  0.22884  1.0000
  H   H10       1.0  0.57928  0.86439  0.22793  1.0000
  C   C23       1.0  0.45130  0.18406  0.27583  1.0000
  C   C24       1.0  0.44316  0.15347  0.27495  1.0000
  H   H11       1.0  0.44347  0.19765  0.22519  1.0000
  H   H12       1.0  0.42987  0.14558  0.22369  1.0000
  C   C25       1.0  0.19383  0.08999  0.28719  1.0000
  C   C26       1.0  0.18170  0.11946  0.28454  1.0000
  H   H13       1.0  0.19056  0.07614  0.23290  1.0000
  H   H14       1.0  0.16952  0.12592  0.22925  1.0000
  C   C27       1.0  0.81622  0.91982  0.28576  1.0000
  C   C28       1.0  0.82816  0.89027  0.28349  1.0000
  H   H15       1.0  0.81951  0.93353  0.23117  1.0000
  H   H16       1.0  0.84031  0.88366  0.22830  1.0000
  C   C29       1.0  0.91978  0.19396  0.28723  1.0000
  C   C30       1.0  0.89029  0.18188  0.28459  1.0000
  H   H17       1.0  0.93361  0.19069  0.23290  1.0000
  H   H18       1.0  0.88379  0.16973  0.22928  1.0000
  C   C31       1.0  0.08993  0.81637  0.28579  1.0000
  C   C32       1.0  0.11946  0.82836  0.28353  1.0000
  H   H19       1.0  0.07620  0.81967  0.23125  1.0000
  H   H20       1.0  0.12604  0.84054  0.22838  1.0000
  C   C33       1.0  0.32149  0.64104  0.33659  1.0000
  C   C34       1.0  0.30426  0.63090  0.26260  1.0000
  C   C35       1.0  0.29232  0.60122  0.25908  1.0000
  C   C36       1.0  0.29755  0.58080  0.33158  1.0000
  H   H21       1.0  0.29965  0.64550  0.21090  1.0000
  N   N5        1.0  0.27457  0.59187  0.18469  1.0000
  O   O9        1.0  0.25150  0.60811  0.17504  1.0000
  O   O10       1.0  0.28953  0.59253  0.11287  1.0000
  C   C37       1.0  0.68801  0.36870  0.33579  1.0000
  C   C38       1.0  0.70500  0.37882  0.26129  1.0000
  C   C39       1.0  0.71689  0.40851  0.25736  1.0000
  C   C40       1.0  0.71188  0.42897  0.32990  1.0000
  H   H22       1.0  0.70945  0.36421  0.20950  1.0000
  N   N6        1.0  0.73443  0.41784  0.18249  1.0000
  O   O11       1.0  0.75748  0.40161  0.17233  1.0000
  O   O12       1.0  0.71927  0.41713  0.11105  1.0000
  C   C41       1.0  0.64095  0.68817  0.33640  1.0000
  C   C42       1.0  0.63078  0.70537  0.26240  1.0000
  C   C43       1.0  0.60109  0.71728  0.25894  1.0000
  C   C44       1.0  0.58066  0.71206  0.33144  1.0000
  H   H23       1.0  0.64537  0.70998  0.21067  1.0000
  N   N7        1.0  0.59171  0.73502  0.18455  1.0000
  O   O13       1.0  0.60794  0.75810  0.17487  1.0000
  O   O14       1.0  0.59238  0.72006  0.11273  1.0000
  C   C45       1.0  0.36861  0.32165  0.33597  1.0000
  C   C46       1.0  0.37871  0.30466  0.26146  1.0000
  C   C47       1.0  0.40839  0.29276  0.25749  1.0000
  C   C48       1.0  0.42886  0.29775  0.33002  1.0000
  H   H24       1.0  0.36409  0.30023  0.20967  1.0000
  N   N8        1.0  0.41771  0.27522  0.18259  1.0000
  O   O15       1.0  0.40147  0.25218  0.17241  1.0000
  O   O16       1.0  0.41701  0.29040  0.11117  1.0000
  C   C49       1.0  0.21559  0.90404  0.33779  1.0000
  C   C50       1.0  0.23434  0.91594  0.26958  1.0000
  C   C51       1.0  0.24113  0.94723  0.26411  1.0000
  C   C52       1.0  0.22927  0.96770  0.32933  1.0000
  H   H25       1.0  0.24309  0.90169  0.22194  1.0000
  N   N9        1.0  0.25927  0.95830  0.19274  1.0000
  O   O17       1.0  0.28488  0.94605  0.19179  1.0000
  O   O18       1.0  0.24693  0.95402  0.11768  1.0000
  C   C53       1.0  0.79430  0.10593  0.33765  1.0000
  C   C54       1.0  0.77575  0.09409  0.26890  1.0000
  C   C55       1.0  0.76898  0.06282  0.26307  1.0000
  C   C56       1.0  0.78069  0.04229  0.32835  1.0000
  H   H26       1.0  0.76711  0.10839  0.22123  1.0000
  N   N10       1.0  0.75097  0.05184  0.19128  1.0000
  O   O19       1.0  0.72547  0.06432  0.18967  1.0000
  O   O20       1.0  0.76355  0.05606  0.11655  1.0000
  C   C57       1.0  0.10574  0.21556  0.33777  1.0000
  C   C58       1.0  0.09385  0.23433  0.26959  1.0000
  C   C59       1.0  0.06257  0.24114  0.26417  1.0000
  C   C60       1.0  0.04210  0.22931  0.32943  1.0000
  H   H27       1.0  0.10810  0.24307  0.22195  1.0000
  N   N11       1.0  0.05151  0.25931  0.19283  1.0000
  O   O21       1.0  0.06381  0.28490  0.19186  1.0000
  O   O22       1.0  0.05575  0.24696  0.11777  1.0000
  C   C61       1.0  0.90385  0.79428  0.33766  1.0000
  C   C62       1.0  0.91571  0.77575  0.26889  1.0000
  C   C63       1.0  0.94699  0.76901  0.26305  1.0000
  C   C64       1.0  0.96752  0.78075  0.32831  1.0000
  H   H28       1.0  0.90142  0.76710  0.22120  1.0000
  N   N12       1.0  0.95798  0.75102  0.19124  1.0000
  O   O23       1.0  0.94554  0.72551  0.18962  1.0000
  O   O24       1.0  0.95375  0.76361  0.11651  1.0000
  C   C65       1.0  0.29955  0.45616  0.29037  1.0000
  C   C66       1.0  0.30637  0.42505  0.28643  1.0000
  H   H29       1.0  0.30774  0.46993  0.24075  1.0000
  H   H30       1.0  0.31962  0.41736  0.23487  1.0000
  C   C67       1.0  0.70987  0.55368  0.28895  1.0000
  C   C68       1.0  0.70309  0.58480  0.28538  1.0000
  H   H31       1.0  0.70163  0.53998  0.23922  1.0000
  H   H32       1.0  0.68978  0.59256  0.23404  1.0000
  C   C69       1.0  0.45603  0.71009  0.29038  1.0000
  C   C70       1.0  0.42492  0.70327  0.28647  1.0000
  H   H33       1.0  0.46980  0.70187  0.24078  1.0000
  H   H34       1.0  0.41723  0.68999  0.23496  1.0000
  C   C71       1.0  0.55356  0.29978  0.28898  1.0000
  C   C72       1.0  0.58468  0.30656  0.28539  1.0000
  H   H35       1.0  0.53985  0.30801  0.23926  1.0000
  H   H36       1.0  0.59243  0.31986  0.23403  1.0000
  C   C73       1.0  0.21210  0.27476  0.29084  1.0000
  C   C74       1.0  0.23432  0.29768  0.28979  1.0000
  H   H37       1.0  0.19511  0.27587  0.24428  1.0000
  H   H38       1.0  0.23259  0.31450  0.24283  1.0000
  C   C75       1.0  0.79752  0.73505  0.29082  1.0000
  C   C76       1.0  0.77529  0.71213  0.28969  1.0000
  H   H39       1.0  0.81450  0.73395  0.24424  1.0000
  H   H40       1.0  0.77702  0.69532  0.24272  1.0000
  C   C77       1.0  0.73500  0.21222  0.29080  1.0000
  C   C78       1.0  0.71205  0.23441  0.28966  1.0000
  H   H41       1.0  0.73392  0.19523  0.24424  1.0000
  H   H42       1.0  0.69525  0.23267  0.24265  1.0000
  C   C79       1.0  0.27469  0.79764  0.29091  1.0000
  C   C80       1.0  0.29759  0.77539  0.28984  1.0000
  H   H43       1.0  0.27582  0.81461  0.24433  1.0000
  H   H44       1.0  0.31442  0.77710  0.24292  1.0000
  C   C81       1.0  0.50070  0.02330  0.26835  1.0000
  C   C82       1.0  0.52332  0.00115  0.26782  1.0000
  H   H45       1.0  0.49762  0.03626  0.21201  1.0000
  H   H46       1.0  0.53622  0.99839  0.21120  1.0000
  C   C83       1.0  0.98641  0.50069  0.26808  1.0000
  C   C84       1.0  0.00856  0.52330  0.26753  1.0000
  H   H47       1.0  0.97352  0.49752  0.21162  1.0000
  H   H48       1.0  0.01140  0.53612  0.21079  1.0000
  C   C85       1.0  0.28233  0.03379  0.34080  1.0000
  C   C86       1.0  0.26219  0.05826  0.34523  1.0000
  C   C87       1.0  0.23064  0.05390  0.34972  1.0000
  C   C88       1.0  0.21942  0.02388  0.34277  1.0000
  C   C89       1.0  0.23922  0.99862  0.33484  1.0000
  C   C90       1.0  0.27070  0.00426  0.33706  1.0000
  H   H49       1.0  0.19658  0.02039  0.34386  1.0000
  H   H50       1.0  0.28561  0.98657  0.33675  1.0000
  H   H51       1.0  0.27085  0.07976  0.34621  1.0000
  C   C91       1.0  0.72770  0.97605  0.33720  1.0000
  C   C92       1.0  0.74796  0.95165  0.34147  1.0000
  C   C93       1.0  0.77946  0.95608  0.34723  1.0000
  C   C94       1.0  0.79064  0.98613  0.34124  1.0000
  C   C95       1.0  0.77079  0.01134  0.33321  1.0000
  C   C96       1.0  0.73933  0.00562  0.33466  1.0000
  H   H52       1.0  0.81347  0.98966  0.34320  1.0000
  H   H53       1.0  0.72440  0.02331  0.33482  1.0000
  H   H54       1.0  0.73940  0.93011  0.34182  1.0000
  C   C97       1.0  0.97601  0.28241  0.34079  1.0000
  C   C98       1.0  0.95155  0.26226  0.34517  1.0000
  C   C99       1.0  0.95591  0.23071  0.34976  1.0000
  C   C100      1.0  0.98592  0.21948  0.34284  1.0000
  C   C101      1.0  0.01118  0.23929  0.33497  1.0000
  C   C102      1.0  0.00554  0.27076  0.33712  1.0000
  H   H55       1.0  0.98940  0.19664  0.34398  1.0000
  H   H56       1.0  0.02324  0.28568  0.33686  1.0000
  H   H57       1.0  0.93005  0.27091  0.34614  1.0000
  C   C103      1.0  0.03375  0.72777  0.33723  1.0000
  C   C104      1.0  0.05815  0.74802  0.34151  1.0000
  C   C105      1.0  0.05373  0.77953  0.34726  1.0000
  C   C106      1.0  0.02368  0.79071  0.34123  1.0000
  C   C107      1.0  0.99847  0.77085  0.33326  1.0000
  C   C108      1.0  0.00419  0.73939  0.33468  1.0000
  H   H58       1.0  0.02014  0.81353  0.34315  1.0000
  H   H59       1.0  0.98650  0.72446  0.33480  1.0000
  H   H60       1.0  0.07970  0.73946  0.34192  1.0000
  C   C109      1.0  0.22743  0.53431  0.35051  1.0000
  C   C110      1.0  0.24781  0.55867  0.34746  1.0000
  C   C111      1.0  0.27931  0.55424  0.34158  1.0000
  C   C112      1.0  0.29047  0.52418  0.34650  1.0000
  C   C113      1.0  0.27057  0.49899  0.35352  1.0000
  C   C114      1.0  0.23911  0.50473  0.35191  1.0000
  H   H61       1.0  0.31329  0.52062  0.34455  1.0000
  H   H62       1.0  0.22424  0.48700  0.35088  1.0000
  H   H63       1.0  0.23935  0.58026  0.34783  1.0000
  C   C115      1.0  0.78207  0.47544  0.34671  1.0000
  C   C116      1.0  0.76167  0.45108  0.34431  1.0000
  C   C117      1.0  0.73015  0.45552  0.33943  1.0000
  C   C118      1.0  0.71902  0.48559  0.34470  1.0000
  C   C119      1.0  0.73894  0.51077  0.35115  1.0000
  C   C120      1.0  0.77039  0.50502  0.34856  1.0000
  H   H64       1.0  0.69619  0.48915  0.34349  1.0000
  H   H65       1.0  0.78526  0.52276  0.34722  1.0000
  H   H66       1.0  0.77012  0.42950  0.34455  1.0000
  C   C121      1.0  0.53423  0.78220  0.35052  1.0000
  C   C122      1.0  0.55858  0.76181  0.34743  1.0000
  C   C123      1.0  0.55412  0.73030  0.34152  1.0000
  C   C124      1.0  0.52405  0.71917  0.34639  1.0000
  C   C125      1.0  0.49887  0.73908  0.35346  1.0000
  C   C126      1.0  0.50463  0.77054  0.35191  1.0000
  H   H67       1.0  0.52048  0.69635  0.34442  1.0000
  H   H68       1.0  0.48691  0.78542  0.35090  1.0000
  H   H69       1.0  0.58016  0.77025  0.34783  1.0000
  C   C127      1.0  0.47535  0.22756  0.34666  1.0000
  C   C128      1.0  0.45099  0.24796  0.34430  1.0000
  C   C129      1.0  0.45542  0.27948  0.33950  1.0000
  C   C130      1.0  0.48548  0.29062  0.34479  1.0000
  C   C131      1.0  0.51066  0.27071  0.35122  1.0000
  C   C132      1.0  0.50493  0.23925  0.34855  1.0000
  H   H70       1.0  0.48903  0.31345  0.34362  1.0000
  H   H71       1.0  0.52267  0.22440  0.34720  1.0000
  H   H72       1.0  0.42940  0.23951  0.34453  1.0000
  C   C133      1.0  0.19103  0.22622  0.34792  1.0000
  C   C134      1.0  0.19977  0.19537  0.34879  1.0000
  C   C135      1.0  0.17856  0.17142  0.34753  1.0000
  C   C136      1.0  0.14754  0.17872  0.34400  1.0000
  C   C137      1.0  0.13747  0.20905  0.34163  1.0000
  C   C138      1.0  0.15956  0.23236  0.34272  1.0000
  H   H73       1.0  0.13200  0.16157  0.34320  1.0000
  H   H74       1.0  0.15247  0.25437  0.34323  1.0000
  H   H75       1.0  0.22227  0.19007  0.34863  1.0000
  C   C139      1.0  0.81857  0.78361  0.34788  1.0000
  C   C140      1.0  0.80985  0.81447  0.34863  1.0000
  C   C141      1.0  0.83108  0.83841  0.34721  1.0000
  C   C142      1.0  0.86209  0.83109  0.34386  1.0000
  C   C143      1.0  0.87213  0.80076  0.34172  1.0000
  C   C144      1.0  0.85003  0.77746  0.34280  1.0000
  H   H76       1.0  0.87765  0.84823  0.34293  1.0000
  H   H77       1.0  0.85713  0.75545  0.34332  1.0000
  H   H78       1.0  0.78735  0.81979  0.34837  1.0000
  C   C145      1.0  0.78354  0.19120  0.34804  1.0000
  C   C146      1.0  0.81439  0.19996  0.34901  1.0000
  C   C147      1.0  0.83835  0.17876  0.34771  1.0000
  C   C148      1.0  0.83108  0.14774  0.34421  1.0000
  C   C149      1.0  0.80076  0.13766  0.34181  1.0000
  C   C150      1.0  0.77744  0.15973  0.34283  1.0000
  H   H79       1.0  0.84824  0.13221  0.34338  1.0000
  H   H80       1.0  0.75543  0.15260  0.34320  1.0000
  H   H81       1.0  0.81968  0.22246  0.34880  1.0000
  C   C151      1.0  0.22614  0.81873  0.34783  1.0000
  C   C152      1.0  0.19528  0.81004  0.34856  1.0000
  C   C153      1.0  0.17136  0.83129  0.34710  1.0000
  C   C154      1.0  0.17871  0.86229  0.34370  1.0000
  C   C155      1.0  0.20905  0.87232  0.34157  1.0000
  C   C156      1.0  0.23233  0.85019  0.34277  1.0000
  H   H82       1.0  0.16159  0.87786  0.34277  1.0000
  H   H83       1.0  0.25435  0.85726  0.34334  1.0000
  H   H84       1.0  0.18994  0.78755  0.34825  1.0000
  C   C157      1.0  0.31908  0.72652  0.34551  1.0000
  C   C158      1.0  0.31008  0.69578  0.34210  1.0000
  C   C159      1.0  0.33125  0.67178  0.34117  1.0000
  C   C160      1.0  0.36233  0.67894  0.34310  1.0000
  C   C161      1.0  0.37254  0.70922  0.34545  1.0000
  C   C162      1.0  0.35056  0.73262  0.34681  1.0000
  H   H85       1.0  0.37781  0.66173  0.34285  1.0000
  H   H86       1.0  0.35765  0.75462  0.34960  1.0000
  H   H87       1.0  0.28751  0.69069  0.34027  1.0000
  C   C163      1.0  0.69046  0.28325  0.34524  1.0000
  C   C164      1.0  0.69945  0.31399  0.34177  1.0000
  C   C165      1.0  0.67827  0.33798  0.34067  1.0000
  C   C166      1.0  0.64720  0.33080  0.34243  1.0000
  C   C167      1.0  0.63699  0.30052  0.34479  1.0000
  C   C168      1.0  0.65898  0.27713  0.34635  1.0000
  H   H88       1.0  0.63172  0.34801  0.34201  1.0000
  H   H89       1.0  0.65190  0.25513  0.34911  1.0000
  H   H90       1.0  0.72202  0.31909  0.33998  1.0000
  C   C169      1.0  0.72642  0.69058  0.34526  1.0000
  C   C170      1.0  0.69569  0.69958  0.34195  1.0000
  C   C171      1.0  0.67168  0.67841  0.34092  1.0000
  C   C172      1.0  0.67886  0.64733  0.34259  1.0000
  C   C173      1.0  0.70914  0.63712  0.34479  1.0000
  C   C174      1.0  0.73254  0.65911  0.34630  1.0000
  H   H91       1.0  0.66165  0.63185  0.34225  1.0000
  H   H92       1.0  0.75454  0.65202  0.34897  1.0000
  H   H93       1.0  0.69059  0.72215  0.34027  1.0000
  C   C175      1.0  0.28315  0.31922  0.34548  1.0000
  C   C176      1.0  0.31389  0.31022  0.34190  1.0000
  C   C177      1.0  0.33788  0.33140  0.34090  1.0000
  C   C178      1.0  0.33071  0.36247  0.34291  1.0000
  C   C179      1.0  0.30043  0.37267  0.34542  1.0000
  C   C180      1.0  0.27704  0.35069  0.34687  1.0000
  H   H94       1.0  0.34792  0.37795  0.34258  1.0000
  H   H95       1.0  0.25504  0.35777  0.34973  1.0000
  H   H96       1.0  0.31899  0.28765  0.33996  1.0000
  C   C181      1.0  0.44525  0.10305  0.34262  1.0000
  C   C182      1.0  0.41455  0.09440  0.34191  1.0000
  C   C183      1.0  0.40634  0.06362  0.34130  1.0000
  C   C184      1.0  0.42903  0.04133  0.34137  1.0000
  C   C185      1.0  0.45973  0.04968  0.34290  1.0000
  C   C186      1.0  0.46773  0.08048  0.34340  1.0000
  H   H97       1.0  0.42318  0.01891  0.34135  1.0000
  H   H98       1.0  0.49010  0.08648  0.34411  1.0000
  H   H99       1.0  0.39804  0.11064  0.34225  1.0000
  C   C187      1.0  0.56447  0.90670  0.34776  1.0000
  C   C188      1.0  0.59516  0.91523  0.34363  1.0000
  C   C189      1.0  0.60353  0.94594  0.33898  1.0000
  C   C190      1.0  0.58086  0.96827  0.33698  1.0000
  C   C191      1.0  0.55016  0.96012  0.34312  1.0000
  C   C192      1.0  0.54211  0.92939  0.34928  1.0000
  H   H100      1.0  0.58676  0.99066  0.33481  1.0000
  H   H101      1.0  0.51973  0.92346  0.35138  1.0000
  H   H102      1.0  0.61159  0.89892  0.34407  1.0000
  C   C193      1.0  0.90658  0.44530  0.34269  1.0000
  C   C194      1.0  0.91524  0.41461  0.34196  1.0000
  C   C195      1.0  0.94603  0.40640  0.34127  1.0000
  C   C196      1.0  0.96831  0.42911  0.34124  1.0000
  C   C197      1.0  0.95995  0.45981  0.34280  1.0000
  C   C198      1.0  0.92915  0.46779  0.34339  1.0000
  H   H103      1.0  0.99073  0.42328  0.34126  1.0000
  H   H104      1.0  0.92314  0.49016  0.34411  1.0000
  H   H105      1.0  0.89901  0.39809  0.34235  1.0000
  C   C199      1.0  0.10292  0.56450  0.34761  1.0000
  C   C200      1.0  0.09441  0.59519  0.34356  1.0000
  C   C201      1.0  0.06370  0.60358  0.33893  1.0000
  C   C202      1.0  0.04136  0.58092  0.33696  1.0000
  C   C203      1.0  0.04950  0.55022  0.34299  1.0000
  C   C204      1.0  0.08023  0.54215  0.34905  1.0000
  H   H106      1.0  0.01898  0.58684  0.33472  1.0000
  H   H107      1.0  0.08614  0.51976  0.35119  1.0000
  H   H108      1.0  0.11073  0.61162  0.34402  1.0000
  C   C205      1.0  0.32691  0.05309  0.41714  1.0000
  C   C206      1.0  0.35755  0.06106  0.41748  1.0000
  H   H109      1.0  0.31415  0.05779  0.47291  1.0000
  H   H110      1.0  0.36648  0.07119  0.47344  1.0000
  C   C207      1.0  0.68366  0.95443  0.41090  1.0000
  C   C208      1.0  0.65308  0.94631  0.41126  1.0000
  H   H111      1.0  0.69680  0.94823  0.46454  1.0000
  H   H112      1.0  0.64465  0.93467  0.46526  1.0000
  C   C209      1.0  0.95640  0.32691  0.41685  1.0000
  C   C210      1.0  0.94837  0.35754  0.41714  1.0000
  H   H113      1.0  0.95152  0.31411  0.47238  1.0000
  H   H114      1.0  0.93803  0.36641  0.47285  1.0000
  C   C211      1.0  0.05521  0.68368  0.41107  1.0000
  C   C212      1.0  0.06326  0.65309  0.41146  1.0000
  H   H115      1.0  0.06133  0.69680  0.46485  1.0000
  H   H116      1.0  0.07480  0.64461  0.46560  1.0000
  C   C213      1.0  0.13376  0.55620  0.34836  1.0000
  C   C214      1.0  0.14554  0.53774  0.41739  1.0000
  C   C215      1.0  0.17646  0.52967  0.41945  1.0000
  C   C216      1.0  0.19585  0.54001  0.34976  1.0000
  H   H117      1.0  0.13173  0.53074  0.46861  1.0000
  N   N13       1.0  0.18829  0.51255  0.49181  1.0000
  O   O25       1.0  0.17505  0.48757  0.49875  1.0000
  O   O26       1.0  0.18573  0.52642  0.56521  1.0000
  C   C217      1.0  0.87574  0.45352  0.34325  1.0000
  C   C218      1.0  0.86408  0.47214  0.41209  1.0000
  C   C219      1.0  0.83318  0.48023  0.41450  1.0000
  C   C220      1.0  0.81366  0.46971  0.34539  1.0000
  H   H118      1.0  0.87799  0.47931  0.46287  1.0000
  N   N14       1.0  0.82154  0.49754  0.48672  1.0000
  O   O27       1.0  0.83485  0.52252  0.49285  1.0000
  O   O28       1.0  0.82424  0.48386  0.56038  1.0000
  C   C221      1.0  0.55618  0.87586  0.34852  1.0000
  C   C222      1.0  0.53772  0.86408  0.41754  1.0000
  C   C223      1.0  0.52963  0.83316  0.41956  1.0000
  C   C224      1.0  0.53995  0.81378  0.34983  1.0000
  H   H119      1.0  0.53072  0.87789  0.46878  1.0000
  N   N15       1.0  0.51251  0.82132  0.49191  1.0000
  O   O29       1.0  0.48753  0.83458  0.49889  1.0000
  O   O30       1.0  0.52638  0.82387  0.56531  1.0000
  C   C225      1.0  0.45348  0.13389  0.34314  1.0000
  C   C226      1.0  0.47208  0.14555  0.41200  1.0000
  C   C227      1.0  0.48016  0.17646  0.41443  1.0000
  C   C228      1.0  0.46964  0.19598  0.34532  1.0000
  H   H120      1.0  0.47926  0.13164  0.46279  1.0000
  N   N16       1.0  0.49746  0.18810  0.48666  1.0000
  O   O31       1.0  0.52244  0.17480  0.49281  1.0000
  O   O32       1.0  0.48378  0.18539  0.56031  1.0000
  C   C229      1.0  0.18828  0.14067  0.35292  1.0000
  C   C230      1.0  0.20574  0.13083  0.42683  1.0000
  C   C231      1.0  0.21776  0.10120  0.43106  1.0000
  C   C232      1.0  0.21242  0.08049  0.35932  1.0000
  H   H121      1.0  0.21047  0.14563  0.47794  1.0000
  N   N17       1.0  0.23572  0.09218  0.50542  1.0000
  O   O33       1.0  0.25874  0.10853  0.51421  1.0000
  O   O34       1.0  0.22092  0.09300  0.57752  1.0000
  C   C233      1.0  0.82143  0.86919  0.35211  1.0000
  C   C234      1.0  0.80398  0.87921  0.42581  1.0000
  C   C235      1.0  0.79213  0.90892  0.42962  1.0000
  C   C236      1.0  0.79765  0.92950  0.35770  1.0000
  H   H122      1.0  0.79915  0.86452  0.47709  1.0000
  N   N18       1.0  0.77411  0.91813  0.50361  1.0000
  O   O35       1.0  0.75099  0.90190  0.51226  1.0000
  O   O36       1.0  0.78879  0.91731  0.57592  1.0000
  C   C237      1.0  0.86910  0.18848  0.35302  1.0000
  C   C238      1.0  0.87898  0.20590  0.42698  1.0000
  C   C239      1.0  0.90863  0.21786  0.43119  1.0000
  C   C240      1.0  0.92931  0.21250  0.35941  1.0000
  H   H123      1.0  0.86420  0.21063  0.47813  1.0000
  N   N19       1.0  0.91769  0.23578  0.50558  1.0000
  O   O37       1.0  0.90138  0.25883  0.51445  1.0000
  O   O38       1.0  0.91686  0.22096  0.57764  1.0000
  C   C241      1.0  0.14058  0.82164  0.35208  1.0000
  C   C242      1.0  0.13059  0.80413  0.42572  1.0000
  C   C243      1.0  0.10090  0.79222  0.42953  1.0000
  C   C244      1.0  0.08031  0.79774  0.35764  1.0000
  H   H124      1.0  0.14530  0.79930  0.47696  1.0000
  N   N20       1.0  0.09173  0.77415  0.50348  1.0000
  O   O39       1.0  0.10801  0.75106  0.51205  1.0000
  O   O40       1.0  0.09253  0.78882  0.57583  1.0000
  C   C245      1.0  0.31581  0.59062  0.40403  1.0000
  C   C246      1.0  0.32786  0.62013  0.40599  1.0000
  H   H125      1.0  0.31893  0.57698  0.45888  1.0000
  H   H126      1.0  0.33985  0.62685  0.46138  1.0000
  C   C247      1.0  0.69385  0.41915  0.40287  1.0000
  C   C248      1.0  0.68186  0.38962  0.40532  1.0000
  H   H127      1.0  0.69097  0.43276  0.45789  1.0000
  H   H128      1.0  0.67007  0.38291  0.46110  1.0000
  C   C249      1.0  0.59055  0.69384  0.40393  1.0000
  C   C250      1.0  0.62006  0.68181  0.40586  1.0000
  H   H129      1.0  0.57693  0.69073  0.45883  1.0000
  H   H130      1.0  0.62680  0.66984  0.46127  1.0000
  C   C251      1.0  0.41906  0.31579  0.40302  1.0000
  C   C252      1.0  0.38954  0.32779  0.40549  1.0000
  H   H131      1.0  0.43268  0.31866  0.45802  1.0000
  H   H132      1.0  0.38284  0.33957  0.46129  1.0000
  C   C253      1.0  0.20976  0.95584  0.39602  1.0000
  C   C254      1.0  0.20289  0.92475  0.39972  1.0000
  H   H133      1.0  0.20127  0.96963  0.44516  1.0000
  H   H134      1.0  0.18930  0.91712  0.45057  1.0000
  C   C255      1.0  0.80007  0.05408  0.39550  1.0000
  C   C256      1.0  0.80687  0.08518  0.39968  1.0000
  H   H135      1.0  0.80842  0.04025  0.44476  1.0000
  H   H136      1.0  0.82033  0.09278  0.45089  1.0000
  C   C257      1.0  0.05394  0.20977  0.39606  1.0000
  C   C258      1.0  0.08503  0.20288  0.39972  1.0000
  H   H137      1.0  0.04015  0.20130  0.44522  1.0000
  H   H138      1.0  0.09265  0.18928  0.45057  1.0000
  C   C259      1.0  0.95569  0.80008  0.39553  1.0000
  C   C260      1.0  0.92459  0.80685  0.39971  1.0000
  H   H139      1.0  0.96951  0.80843  0.44480  1.0000
  H   H140      1.0  0.91698  0.82030  0.45094  1.0000
  C   C261      1.0  0.29406  0.40442  0.34926  1.0000
  C   C262      1.0  0.27584  0.41638  0.41861  1.0000
  C   C263      1.0  0.26905  0.44765  0.42417  1.0000
  C   C264      1.0  0.28048  0.46805  0.35813  1.0000
  H   H141      1.0  0.26744  0.40218  0.46691  1.0000
  N   N21       1.0  0.25133  0.45874  0.49642  1.0000
  O   O41       1.0  0.22598  0.44601  0.49956  1.0000
  O   O42       1.0  0.26434  0.45480  0.57064  1.0000
  C   C265      1.0  0.71550  0.60536  0.34825  1.0000
  C   C266      1.0  0.73381  0.59330  0.41723  1.0000
  C   C267      1.0  0.74060  0.56203  0.42234  1.0000
  C   C268      1.0  0.72905  0.54170  0.35629  1.0000
  H   H142      1.0  0.74231  0.60745  0.46554  1.0000
  N   N22       1.0  0.75844  0.55083  0.49419  1.0000
  O   O43       1.0  0.78378  0.56358  0.49716  1.0000
  O   O44       1.0  0.74554  0.55465  0.56863  1.0000
  C   C269      1.0  0.40429  0.71560  0.34925  1.0000
  C   C270      1.0  0.41625  0.73384  0.41854  1.0000
  C   C271      1.0  0.44752  0.74063  0.42407  1.0000
  C   C272      1.0  0.46793  0.72919  0.35805  1.0000
  H   H143      1.0  0.40205  0.74226  0.46683  1.0000
  N   N23       1.0  0.45861  0.75836  0.49630  1.0000
  O   O45       1.0  0.44589  0.78371  0.49941  1.0000
  O   O46       1.0  0.45468  0.74537  0.57055  1.0000
  C   C273      1.0  0.60524  0.29415  0.34826  1.0000
  C   C274      1.0  0.59319  0.27585  0.41727  1.0000
  C   C275      1.0  0.56191  0.26906  0.42241  1.0000
  C   C276      1.0  0.54159  0.28060  0.35634  1.0000
  H   H144      1.0  0.60733  0.26736  0.46560  1.0000
  N   N24       1.0  0.55073  0.25122  0.49426  1.0000
  O   O47       1.0  0.56348  0.22588  0.49724  1.0000
  O   O48       1.0  0.55455  0.26412  0.56870  1.0000
  C   C277      1.0  0.25939  0.29693  0.34874  1.0000
  C   C278      1.0  0.26047  0.27274  0.41086  1.0000
  C   C279      1.0  0.23801  0.24980  0.41386  1.0000
  C   C280      1.0  0.21348  0.25006  0.35160  1.0000
  H   H145      1.0  0.27777  0.27191  0.45654  1.0000
  N   N25       1.0  0.23939  0.22718  0.48124  1.0000
  O   O49       1.0  0.26337  0.21206  0.47633  1.0000
  O   O50       1.0  0.23743  0.23831  0.55883  1.0000
  C   C281      1.0  0.75019  0.71288  0.34857  1.0000
  C   C282      1.0  0.74911  0.73708  0.41069  1.0000
  C   C283      1.0  0.77155  0.76003  0.41369  1.0000
  C   C284      1.0  0.79611  0.75977  0.35151  1.0000
  H   H146      1.0  0.73179  0.73791  0.45631  1.0000
  N   N26       1.0  0.77016  0.78267  0.48102  1.0000
  O   O51       1.0  0.74617  0.79777  0.47601  1.0000
  O   O52       1.0  0.77210  0.77156  0.55864  1.0000
  C   C285      1.0  0.71276  0.25949  0.34859  1.0000
  C   C286      1.0  0.73693  0.26059  0.41080  1.0000
  C   C287      1.0  0.75989  0.23816  0.41387  1.0000
  C   C288      1.0  0.75968  0.21363  0.35162  1.0000
  H   H147      1.0  0.73772  0.27789  0.45647  1.0000
  N   N27       1.0  0.78248  0.23956  0.48133  1.0000
  O   O53       1.0  0.79758  0.26355  0.47645  1.0000
  O   O54       1.0  0.77134  0.23759  0.55888  1.0000
  C   C289      1.0  0.29680  0.75029  0.34872  1.0000
  C   C290      1.0  0.27258  0.74923  0.41078  1.0000
  C   C291      1.0  0.24965  0.77170  0.41373  1.0000
  C   C292      1.0  0.24996  0.79625  0.35154  1.0000
  H   H148      1.0  0.27172  0.73191  0.45639  1.0000
  N   N28       1.0  0.22700  0.77032  0.48100  1.0000
  O   O55       1.0  0.21187  0.74635  0.47596  1.0000
  O   O56       1.0  0.23809  0.77225  0.55865  1.0000
  C   C293      1.0  0.52765  0.98256  0.34376  1.0000
  C   C294      1.0  0.50945  0.98671  0.42072  1.0000
  C   C295      1.0  0.48685  0.00922  0.42272  1.0000
  C   C296      1.0  0.48234  0.02733  0.34512  1.0000
  H   H149      1.0  0.51295  0.97368  0.47676  1.0000
  N   N29       1.0  0.46946  0.01454  0.50118  1.0000
  O   O57       1.0  0.48587  0.02253  0.56596  1.0000
  O   O58       1.0  0.45481  0.99149  0.52399  1.0000
  C   C297      1.0  0.02705  0.52773  0.34364  1.0000
  C   C298      1.0  0.02279  0.50964  0.42079  1.0000
  C   C299      1.0  0.00029  0.48703  0.42277  1.0000
  C   C300      1.0  0.98228  0.48242  0.34501  1.0000
  H   H150      1.0  0.03577  0.51319  0.47690  1.0000
  N   N30       1.0  0.99488  0.46972  0.50133  1.0000
  O   O59       1.0  0.98680  0.48620  0.56587  1.0000
  O   O60       1.0  0.01791  0.45511  0.52455  1.0000
