data_image0
_chemical_formula_structural       C4NH2NH2C4NH2NH2C4NH2NH2C4NH2NH2C4NH2NH2C4NH2NH2C2NH2NH2C2NH2NH2C2NH2NH2C2NH2NH2C2NH2NH2C2NH2NH2C2NH2NH2C2NH2NH2C2NH2NH2C2NH2NH2C2NH2NH2C2NH2NH2C4NH2NH2C4NH2NH2C4NH2NH2C4NH2NH2C4NH2NH2C4NH2NH2C2NH2NH2C2NH2NH2C2NH2NH2C2NH2NH2C2NH2NH2C2NH2NH2C2NH2NH2C2NH2NH2C2NH2NH2C2NH2NH2C2NH2NH2C2NH2NH2CNCNCNCNCNCNCNCNCNCNCNCNCNCNCNCNCNCNCNCNCNCNCNCNCNCNCNCNCNCNCNCNCNCNCNCNCNCNCNCNCNCNCNCNCNCNCNCNCNCNCNCNCNCNCNCNCNCNCNCNCNCNCNCNCNCNCNCNCNCNCNCNC2NH2NH2C2NH2NH2C2NH2NH2C2NH2NH2C2NH2NH2C2NH2NH2C4NH2NH2C4NH2NH2C4NH2NH2C4NH2NH2C4NH2NH2C4NH2NH2C4NH2NH2C4NH2NH2C4NH2NH2C4NH2NH2C4NH2NH2C4NH2NH2C2NH2NH2C2NH2NH2C2NH2NH2C2NH2NH2C2NH2NH2C2NH2NH2C4NH2NH2C4NH2NH2C4NH2NH2C4NH2NH2C4NH2NH2C4NH2NH2C4NH2NH2C4NH2NH2C4NH2NH2C4NH2NH2C4NH2NH2C4NH2NH2
_chemical_formula_sum              "C288 N216 H288"
_cell_length_a       53.9668
_cell_length_b       53.9668
_cell_length_c       14.8175
_cell_angle_alpha    90
_cell_angle_beta     90
_cell_angle_gamma    120

_space_group_name_H-M_alt    "P 1"
_space_group_IT_number       1

loop_
  _space_group_symop_operation_xyz
  'x, y, z'

loop_
  _atom_site_type_symbol
  _atom_site_label
  _atom_site_symmetry_multiplicity
  _atom_site_fract_x
  _atom_site_fract_y
  _atom_site_fract_z
  _atom_site_occupancy
  C   C1        1.0  0.11890  0.40062  0.34436  1.0000
  C   C2        1.0  0.12493  0.41554  0.26034  1.0000
  C   C3        1.0  0.13976  0.44621  0.26017  1.0000
  C   C4        1.0  0.14704  0.46134  0.34407  1.0000
  N   N1        1.0  0.14823  0.46141  0.18091  1.0000
  H   H1        1.0  0.14719  0.45271  0.12306  1.0000
  H   H2        1.0  0.15739  0.48213  0.17913  1.0000
  N   N2        1.0  0.11596  0.40018  0.18150  1.0000
  H   H3        1.0  0.10518  0.37942  0.18061  1.0000
  H   H4        1.0  0.11652  0.40885  0.12398  1.0000
  C   C5        1.0  0.61477  0.72139  0.34441  1.0000
  C   C6        1.0  0.59984  0.71250  0.26038  1.0000
  C   C7        1.0  0.56918  0.69666  0.26020  1.0000
  C   C8        1.0  0.55408  0.68876  0.34416  1.0000
  N   N3        1.0  0.55398  0.68998  0.18095  1.0000
  H   H5        1.0  0.56268  0.69773  0.12317  1.0000
  H   H6        1.0  0.53326  0.67841  0.17915  1.0000
  N   N4        1.0  0.61520  0.71889  0.18153  1.0000
  H   H7        1.0  0.63595  0.72886  0.18062  1.0000
  H   H8        1.0  0.60652  0.71075  0.12404  1.0000
  C   C9        1.0  0.29401  0.89647  0.34445  1.0000
  C   C10       1.0  0.30292  0.89045  0.26043  1.0000
  C   C11       1.0  0.31870  0.87555  0.26026  1.0000
  C   C12       1.0  0.32662  0.86837  0.34420  1.0000
  N   N5        1.0  0.32528  0.86697  0.18098  1.0000
  H   H9        1.0  0.31743  0.86785  0.12329  1.0000
  H   H10       1.0  0.33679  0.85775  0.17911  1.0000
  N   N6        1.0  0.29662  0.89947  0.18154  1.0000
  H   H11       1.0  0.28674  0.91035  0.18075  1.0000
  H   H12       1.0  0.30489  0.89906  0.12419  1.0000
  C   C13       1.0  0.89956  0.61170  0.34434  1.0000
  C   C14       1.0  0.89353  0.59677  0.26030  1.0000
  C   C15       1.0  0.87872  0.56610  0.26013  1.0000
  C   C16       1.0  0.87145  0.55099  0.34405  1.0000
  N   N7        1.0  0.87026  0.55089  0.18090  1.0000
  H   H13       1.0  0.87137  0.55958  0.12298  1.0000
  H   H14       1.0  0.86115  0.53017  0.17914  1.0000
  N   N8        1.0  0.90248  0.61214  0.18146  1.0000
  H   H15       1.0  0.91324  0.63289  0.18058  1.0000
  H   H16       1.0  0.90188  0.60348  0.12390  1.0000
  C   C17       1.0  0.40370  0.29095  0.34436  1.0000
  C   C18       1.0  0.41863  0.29985  0.26034  1.0000
  C   C19       1.0  0.44930  0.31569  0.26017  1.0000
  C   C20       1.0  0.46443  0.32354  0.34408  1.0000
  N   N9        1.0  0.46450  0.32242  0.18092  1.0000
  H   H17       1.0  0.45580  0.31476  0.12306  1.0000
  H   H18       1.0  0.48522  0.33398  0.17914  1.0000
  N   N10       1.0  0.40327  0.29346  0.18150  1.0000
  H   H19       1.0  0.38251  0.28348  0.18061  1.0000
  H   H20       1.0  0.41193  0.30157  0.12398  1.0000
  C   C21       1.0  0.72447  0.11585  0.34441  1.0000
  C   C22       1.0  0.71559  0.12190  0.26038  1.0000
  C   C23       1.0  0.69975  0.13673  0.26020  1.0000
  C   C24       1.0  0.69184  0.14392  0.34415  1.0000
  N   N11       1.0  0.69307  0.14525  0.18094  1.0000
  H   H21       1.0  0.70082  0.14429  0.12316  1.0000
  H   H22       1.0  0.68151  0.15440  0.17914  1.0000
  N   N12       1.0  0.72197  0.11292  0.18152  1.0000
  H   H23       1.0  0.73194  0.10214  0.18061  1.0000
  H   H24       1.0  0.71383  0.11347  0.12403  1.0000
  C   C25       1.0  0.44928  0.13664  0.26438  1.0000
  C   C26       1.0  0.41861  0.12183  0.26463  1.0000
  N   N13       1.0  0.46446  0.14507  0.18507  1.0000
  H   H25       1.0  0.48518  0.15418  0.18321  1.0000
  H   H26       1.0  0.45575  0.14396  0.12719  1.0000
  N   N14       1.0  0.40324  0.11284  0.18581  1.0000
  H   H27       1.0  0.38248  0.10210  0.18492  1.0000
  H   H28       1.0  0.41189  0.11336  0.12828  1.0000
  C   C27       1.0  0.69972  0.56612  0.26440  1.0000
  C   C28       1.0  0.71551  0.59679  0.26467  1.0000
  N   N15       1.0  0.69310  0.55097  0.18507  1.0000
  H   H29       1.0  0.68154  0.53025  0.18312  1.0000
  H   H30       1.0  0.70085  0.55971  0.12732  1.0000
  N   N16       1.0  0.72180  0.61214  0.18581  1.0000
  H   H31       1.0  0.73172  0.63290  0.18505  1.0000
  H   H32       1.0  0.71352  0.60347  0.12845  1.0000
  C   C29       1.0  0.87868  0.31564  0.26442  1.0000
  C   C30       1.0  0.89359  0.29989  0.26465  1.0000
  N   N17       1.0  0.87009  0.32220  0.18508  1.0000
  H   H33       1.0  0.86089  0.33371  0.18308  1.0000
  H   H34       1.0  0.87102  0.31437  0.12740  1.0000
  N   N18       1.0  0.90268  0.29363  0.18580  1.0000
  H   H35       1.0  0.91357  0.28377  0.18501  1.0000
  H   H36       1.0  0.90240  0.30206  0.12861  1.0000
  C   C31       1.0  0.56919  0.87565  0.26436  1.0000
  C   C32       1.0  0.59986  0.89050  0.26463  1.0000
  N   N19       1.0  0.55403  0.86716  0.18503  1.0000
  H   H37       1.0  0.53331  0.85799  0.18314  1.0000
  H   H38       1.0  0.56276  0.86813  0.12730  1.0000
  N   N20       1.0  0.61522  0.89955  0.18580  1.0000
  H   H39       1.0  0.63598  0.91031  0.18490  1.0000
  H   H40       1.0  0.60655  0.89910  0.12836  1.0000
  C   C33       1.0  0.31880  0.44621  0.26437  1.0000
  C   C34       1.0  0.30295  0.41554  0.26462  1.0000
  N   N21       1.0  0.32555  0.46139  0.18507  1.0000
  H   H41       1.0  0.33716  0.48210  0.18321  1.0000
  H   H42       1.0  0.31795  0.45268  0.12719  1.0000
  N   N22       1.0  0.29657  0.40017  0.18579  1.0000
  H   H43       1.0  0.28654  0.37941  0.18491  1.0000
  H   H44       1.0  0.30469  0.40881  0.12827  1.0000
  C   C35       1.0  0.13979  0.69666  0.26439  1.0000
  C   C36       1.0  0.12490  0.71244  0.26463  1.0000
  N   N23       1.0  0.14833  0.69004  0.18506  1.0000
  H   H45       1.0  0.15749  0.67849  0.18311  1.0000
  H   H46       1.0  0.14735  0.69781  0.12732  1.0000
  N   N24       1.0  0.11585  0.71874  0.18577  1.0000
  H   H47       1.0  0.10501  0.72864  0.18499  1.0000
  H   H48       1.0  0.11624  0.71045  0.12841  1.0000
  C   C37       1.0  0.25923  0.53275  0.26212  1.0000
  C   C38       1.0  0.28463  0.53069  0.26166  1.0000
  N   N25       1.0  0.24793  0.53631  0.18353  1.0000
  H   H49       1.0  0.23130  0.53877  0.18302  1.0000
  H   H50       1.0  0.25830  0.54114  0.12706  1.0000
  N   N26       1.0  0.29591  0.52761  0.18225  1.0000
  H   H51       1.0  0.31332  0.52653  0.18007  1.0000
  H   H52       1.0  0.28562  0.52326  0.12568  1.0000
  C   C39       1.0  0.48267  0.72958  0.26206  1.0000
  C   C40       1.0  0.48475  0.75704  0.26160  1.0000
  N   N27       1.0  0.47913  0.71472  0.18343  1.0000
  H   H53       1.0  0.47652  0.69558  0.18314  1.0000
  H   H54       1.0  0.47408  0.72021  0.12726  1.0000
  N   N28       1.0  0.48791  0.77143  0.18221  1.0000
  H   H55       1.0  0.48894  0.78990  0.17994  1.0000
  H   H56       1.0  0.49218  0.76546  0.12556  1.0000
  C   C41       1.0  0.28582  0.75616  0.26205  1.0000
  C   C42       1.0  0.25838  0.73076  0.26158  1.0000
  N   N29       1.0  0.30068  0.76750  0.18346  1.0000
  H   H57       1.0  0.31976  0.78415  0.18297  1.0000
  H   H58       1.0  0.29514  0.75715  0.12696  1.0000
  N   N30       1.0  0.24402  0.71945  0.18220  1.0000
  H   H59       1.0  0.22558  0.70198  0.17996  1.0000
  H   H60       1.0  0.24999  0.72964  0.12547  1.0000
  C   C43       1.0  0.75925  0.47960  0.26210  1.0000
  C   C44       1.0  0.73385  0.48164  0.26164  1.0000
  N   N31       1.0  0.77058  0.47606  0.18351  1.0000
  H   H61       1.0  0.78721  0.47361  0.18301  1.0000
  H   H62       1.0  0.76023  0.47126  0.12701  1.0000
  N   N32       1.0  0.72256  0.48470  0.18223  1.0000
  H   H63       1.0  0.70512  0.48573  0.18005  1.0000
  H   H64       1.0  0.73277  0.48897  0.12556  1.0000
  C   C45       1.0  0.53583  0.28275  0.26212  1.0000
  C   C46       1.0  0.53377  0.25530  0.26166  1.0000
  N   N33       1.0  0.53940  0.29762  0.18353  1.0000
  H   H65       1.0  0.54186  0.31671  0.18302  1.0000
  H   H66       1.0  0.54423  0.29208  0.12706  1.0000
  N   N34       1.0  0.53069  0.24094  0.18224  1.0000
  H   H67       1.0  0.52960  0.22245  0.18007  1.0000
  H   H68       1.0  0.52634  0.24688  0.12568  1.0000
  C   C47       1.0  0.73264  0.25614  0.26206  1.0000
  C   C48       1.0  0.76010  0.28153  0.26159  1.0000
  N   N35       1.0  0.71779  0.24482  0.18343  1.0000
  H   H69       1.0  0.69865  0.22829  0.18313  1.0000
  H   H70       1.0  0.72328  0.25536  0.12725  1.0000
  N   N36       1.0  0.77449  0.29276  0.18220  1.0000
  H   H71       1.0  0.79295  0.31021  0.17994  1.0000
  H   H72       1.0  0.76853  0.28252  0.12556  1.0000
  C   C49       1.0  0.17767  0.61671  0.34645  1.0000
  C   C50       1.0  0.17638  0.60312  0.26241  1.0000
  C   C51       1.0  0.17829  0.57758  0.26181  1.0000
  C   C52       1.0  0.17767  0.56406  0.34542  1.0000
  N   N37       1.0  0.18145  0.56640  0.18229  1.0000
  H   H73       1.0  0.18601  0.57680  0.12593  1.0000
  H   H74       1.0  0.18235  0.54890  0.17986  1.0000
  N   N38       1.0  0.17319  0.61464  0.18371  1.0000
  H   H75       1.0  0.17077  0.63130  0.18332  1.0000
  H   H76       1.0  0.16851  0.60440  0.12705  1.0000
  C   C53       1.0  0.39870  0.56406  0.34644  1.0000
  C   C54       1.0  0.41226  0.57636  0.26239  1.0000
  C   C55       1.0  0.43786  0.60378  0.26181  1.0000
  C   C56       1.0  0.45135  0.61671  0.34543  1.0000
  N   N39       1.0  0.44912  0.61809  0.18232  1.0000
  H   H77       1.0  0.43888  0.61221  0.12571  1.0000
  H   H78       1.0  0.46671  0.63643  0.17987  1.0000
  N   N40       1.0  0.40066  0.56166  0.18374  1.0000
  H   H79       1.0  0.38392  0.54266  0.18316  1.0000
  H   H80       1.0  0.41082  0.56727  0.12691  1.0000
  C   C57       1.0  0.45133  0.83770  0.34638  1.0000
  C   C58       1.0  0.43905  0.83900  0.26235  1.0000
  C   C59       1.0  0.41160  0.83713  0.26173  1.0000
  C   C60       1.0  0.39870  0.83773  0.34534  1.0000
  N   N41       1.0  0.39729  0.83403  0.18222  1.0000
  H   H81       1.0  0.40313  0.82950  0.12580  1.0000
  H   H82       1.0  0.37890  0.83316  0.17981  1.0000
  N   N42       1.0  0.45377  0.84217  0.18370  1.0000
  H   H83       1.0  0.47279  0.84447  0.18312  1.0000
  H   H84       1.0  0.44817  0.84677  0.12695  1.0000
  C   C61       1.0  0.84079  0.39561  0.34643  1.0000
  C   C62       1.0  0.84209  0.40920  0.26240  1.0000
  C   C63       1.0  0.84020  0.43476  0.26179  1.0000
  C   C64       1.0  0.84080  0.44827  0.34540  1.0000
  N   N43       1.0  0.83708  0.44596  0.18227  1.0000
  H   H85       1.0  0.83254  0.43557  0.12589  1.0000
  H   H86       1.0  0.83618  0.46346  0.17986  1.0000
  N   N44       1.0  0.84529  0.39767  0.18375  1.0000
  H   H87       1.0  0.84761  0.38096  0.18317  1.0000
  H   H88       1.0  0.84991  0.40788  0.12702  1.0000
  C   C65       1.0  0.61979  0.44828  0.34647  1.0000
  C   C66       1.0  0.60621  0.43599  0.26243  1.0000
  C   C67       1.0  0.58066  0.40853  0.26182  1.0000
  C   C68       1.0  0.56714  0.39562  0.34543  1.0000
  N   N45       1.0  0.56948  0.39420  0.18231  1.0000
  H   H89       1.0  0.57988  0.40004  0.12593  1.0000
  H   H90       1.0  0.55197  0.37580  0.17988  1.0000
  N   N46       1.0  0.61774  0.45070  0.18373  1.0000
  H   H91       1.0  0.63440  0.46976  0.18334  1.0000
  H   H92       1.0  0.60750  0.44513  0.12706  1.0000
  C   C69       1.0  0.56714  0.17460  0.34643  1.0000
  C   C70       1.0  0.57943  0.17332  0.26238  1.0000
  C   C71       1.0  0.60686  0.17515  0.26179  1.0000
  C   C72       1.0  0.61978  0.17458  0.34542  1.0000
  N   N47       1.0  0.62117  0.17819  0.18231  1.0000
  H   H93       1.0  0.61528  0.18256  0.12570  1.0000
  H   H94       1.0  0.63950  0.17893  0.17986  1.0000
  N   N48       1.0  0.56474  0.17023  0.18372  1.0000
  H   H95       1.0  0.54573  0.16798  0.18315  1.0000
  H   H96       1.0  0.57034  0.16568  0.12690  1.0000
  C   C73       1.0  0.99392  0.28045  0.26361  1.0000
  C   C74       1.0  0.02467  0.29408  0.26384  1.0000
  N   N49       1.0  0.97921  0.27613  0.18426  1.0000
  H   H97       1.0  0.95849  0.26668  0.18179  1.0000
  H   H98       1.0  0.98863  0.28499  0.12813  1.0000
  N   N50       1.0  0.03959  0.29867  0.18482  1.0000
  H   H99       1.0  0.06020  0.30679  0.18388  1.0000
  H   H100      1.0  0.03022  0.28970  0.12876  1.0000
  C   C75       1.0  0.73498  0.71659  0.26357  1.0000
  C   C76       1.0  0.72132  0.73368  0.26382  1.0000
  N   N51       1.0  0.73937  0.70627  0.18418  1.0000
  H   H101      1.0  0.74876  0.69494  0.18183  1.0000
  H   H102      1.0  0.73044  0.70676  0.12815  1.0000
  N   N52       1.0  0.71677  0.74406  0.18486  1.0000
  H   H103      1.0  0.70851  0.75643  0.18373  1.0000
  H   H104      1.0  0.72555  0.74353  0.12853  1.0000
  C   C77       1.0  0.29883  0.02148  0.26356  1.0000
  C   C78       1.0  0.28175  0.99073  0.26380  1.0000
  N   N53       1.0  0.30915  0.03621  0.18422  1.0000
  H   H105      1.0  0.32039  0.05693  0.18178  1.0000
  H   H106      1.0  0.30855  0.02682  0.12799  1.0000
  N   N54       1.0  0.27139  0.97579  0.18484  1.0000
  H   H107      1.0  0.25904  0.95516  0.18371  1.0000
  H   H108      1.0  0.27195  0.98509  0.12847  1.0000
  C   C79       1.0  0.02456  0.73187  0.26357  1.0000
  C   C80       1.0  0.99381  0.71821  0.26380  1.0000
  N   N55       1.0  0.03929  0.73625  0.18423  1.0000
  H   H109      1.0  0.06001  0.74573  0.18179  1.0000
  H   H110      1.0  0.02989  0.72744  0.12803  1.0000
  N   N56       1.0  0.97889  0.71360  0.18478  1.0000
  H   H111      1.0  0.95826  0.70541  0.18382  1.0000
  H   H112      1.0  0.98819  0.72239  0.12847  1.0000
  C   C81       1.0  0.28354  0.29577  0.26359  1.0000
  C   C82       1.0  0.29717  0.27866  0.26382  1.0000
  N   N57       1.0  0.27921  0.30615  0.18424  1.0000
  H   H113      1.0  0.26976  0.31743  0.18178  1.0000
  H   H114      1.0  0.28806  0.30559  0.12809  1.0000
  N   N58       1.0  0.30176  0.26832  0.18481  1.0000
  H   H115      1.0  0.30988  0.25583  0.18386  1.0000
  H   H116      1.0  0.29279  0.26873  0.12874  1.0000
  C   C83       1.0  0.71965  0.99084  0.26360  1.0000
  C   C84       1.0  0.73674  0.02158  0.26384  1.0000
  N   N59       1.0  0.70933  0.97613  0.18422  1.0000
  H   H117      1.0  0.69800  0.95541  0.18185  1.0000
  H   H118      1.0  0.70981  0.98555  0.12819  1.0000
  N   N60       1.0  0.74712  0.03652  0.18487  1.0000
  H   H119      1.0  0.75949  0.05715  0.18373  1.0000
  H   H120      1.0  0.74658  0.02720  0.12854  1.0000
  C   C85       1.0  0.15515  0.32481  0.26400  1.0000
  C   C86       1.0  0.18273  0.32675  0.26345  1.0000
  N   N61       1.0  0.14038  0.32140  0.18536  1.0000
  H   H121      1.0  0.12124  0.31881  0.18489  1.0000
  H   H122      1.0  0.14597  0.31664  0.12886  1.0000
  N   N62       1.0  0.19707  0.32997  0.18397  1.0000
  H   H123      1.0  0.21540  0.33071  0.18137  1.0000
  H   H124      1.0  0.19115  0.33442  0.12753  1.0000
  C   C87       1.0  0.69056  0.83341  0.26397  1.0000
  C   C88       1.0  0.68862  0.85905  0.26345  1.0000
  N   N63       1.0  0.69394  0.82204  0.18532  1.0000
  H   H125      1.0  0.69654  0.80549  0.18484  1.0000
  H   H126      1.0  0.69866  0.83237  0.12879  1.0000
  N   N64       1.0  0.68539  0.87016  0.18395  1.0000
  H   H127      1.0  0.68462  0.88774  0.18144  1.0000
  H   H128      1.0  0.68089  0.85977  0.12757  1.0000
  C   C89       1.0  0.18200  0.86023  0.26399  1.0000
  C   C90       1.0  0.15637  0.83264  0.26345  1.0000
  N   N65       1.0  0.19336  0.87499  0.18533  1.0000
  H   H129      1.0  0.20990  0.89414  0.18485  1.0000
  H   H130      1.0  0.18301  0.86938  0.12882  1.0000
  N   N66       1.0  0.14529  0.81830  0.18395  1.0000
  H   H131      1.0  0.12774  0.79993  0.18139  1.0000
  H   H132      1.0  0.15576  0.82416  0.12769  1.0000
  C   C91       1.0  0.86333  0.68750  0.26399  1.0000
  C   C92       1.0  0.83573  0.68551  0.26342  1.0000
  N   N67       1.0  0.87809  0.69090  0.18530  1.0000
  H   H133      1.0  0.89730  0.69368  0.18506  1.0000
  H   H134      1.0  0.87254  0.69588  0.12911  1.0000
  N   N68       1.0  0.82137  0.68218  0.18393  1.0000
  H   H135      1.0  0.80301  0.68139  0.18129  1.0000
  H   H136      1.0  0.82727  0.67765  0.12760  1.0000
  C   C93       1.0  0.32789  0.17890  0.26401  1.0000
  C   C94       1.0  0.32983  0.15325  0.26346  1.0000
  N   N69       1.0  0.32448  0.19026  0.18536  1.0000
  H   H137      1.0  0.32189  0.20681  0.18489  1.0000
  H   H138      1.0  0.31972  0.17991  0.12886  1.0000
  N   N70       1.0  0.33305  0.14214  0.18397  1.0000
  H   H139      1.0  0.33379  0.12455  0.18139  1.0000
  H   H140      1.0  0.33750  0.15251  0.12754  1.0000
  C   C95       1.0  0.83649  0.15209  0.26397  1.0000
  C   C96       1.0  0.86213  0.17967  0.26345  1.0000
  N   N71       1.0  0.82511  0.13734  0.18531  1.0000
  H   H141      1.0  0.80856  0.11819  0.18482  1.0000
  H   H142      1.0  0.83544  0.14295  0.12877  1.0000
  N   N72       1.0  0.87323  0.19400  0.18396  1.0000
  H   H143      1.0  0.89081  0.21235  0.18143  1.0000
  H   H144      1.0  0.86283  0.18813  0.12758  1.0000
  C   C97       1.0  0.16782  0.49110  0.34407  1.0000
  N   N73       1.0  0.16149  0.51265  0.34455  1.0000
  C   C98       1.0  0.18291  0.54062  0.34585  1.0000
  N   N74       1.0  0.21061  0.54675  0.34644  1.0000
  C   C99       1.0  0.21705  0.52546  0.34541  1.0000
  N   N75       1.0  0.19563  0.49789  0.34443  1.0000
  C   C100      1.0  0.52431  0.67979  0.34411  1.0000
  N   N76       1.0  0.50276  0.65192  0.34461  1.0000
  C   C101      1.0  0.47479  0.64538  0.34587  1.0000
  N   N77       1.0  0.46867  0.66695  0.34642  1.0000
  C   C102      1.0  0.48996  0.69467  0.34538  1.0000
  N   N78       1.0  0.51754  0.70082  0.34444  1.0000
  C   C103      1.0  0.33560  0.84758  0.34413  1.0000
  N   N79       1.0  0.36347  0.85390  0.34457  1.0000
  C   C104      1.0  0.37002  0.83249  0.34582  1.0000
  N   N80       1.0  0.34845  0.80479  0.34638  1.0000
  C   C105      1.0  0.32072  0.79835  0.34541  1.0000
  N   N81       1.0  0.31457  0.81978  0.34449  1.0000
  C   C106      1.0  0.85066  0.52122  0.34408  1.0000
  N   N82       1.0  0.85698  0.49967  0.34454  1.0000
  C   C107      1.0  0.83556  0.47171  0.34585  1.0000
  N   N83       1.0  0.80787  0.46558  0.34644  1.0000
  C   C108      1.0  0.80142  0.48686  0.34542  1.0000
  N   N84       1.0  0.82285  0.51444  0.34444  1.0000
  C   C109      1.0  0.49419  0.33252  0.34407  1.0000
  N   N85       1.0  0.51574  0.36040  0.34457  1.0000
  C   C110      1.0  0.54371  0.36695  0.34586  1.0000
  N   N86       1.0  0.54983  0.34538  0.34644  1.0000
  C   C111      1.0  0.52855  0.31765  0.34540  1.0000
  N   N87       1.0  0.50097  0.31150  0.34443  1.0000
  C   C112      1.0  0.68288  0.16472  0.34410  1.0000
  N   N88       1.0  0.65500  0.15840  0.34459  1.0000
  C   C113      1.0  0.64845  0.17981  0.34586  1.0000
  N   N89       1.0  0.67002  0.20751  0.34641  1.0000
  C   C114      1.0  0.69775  0.21395  0.34538  1.0000
  N   N90       1.0  0.70390  0.19253  0.34444  1.0000
  C   C115      1.0  0.49419  0.16474  0.34810  1.0000
  N   N91       1.0  0.51574  0.15842  0.34754  1.0000
  C   C116      1.0  0.54370  0.17984  0.34608  1.0000
  N   N92       1.0  0.54983  0.20754  0.34541  1.0000
  C   C117      1.0  0.52854  0.21398  0.34649  1.0000
  N   N93       1.0  0.50096  0.19255  0.34764  1.0000
  C   C118      1.0  0.68288  0.52123  0.34810  1.0000
  N   N94       1.0  0.65501  0.49968  0.34754  1.0000
  C   C119      1.0  0.64847  0.47171  0.34604  1.0000
  N   N95       1.0  0.67004  0.46559  0.34538  1.0000
  C   C120      1.0  0.69777  0.48688  0.34646  1.0000
  N   N96       1.0  0.70392  0.51446  0.34764  1.0000
  C   C121      1.0  0.85064  0.33251  0.34808  1.0000
  N   N97       1.0  0.85696  0.36038  0.34751  1.0000
  C   C122      1.0  0.83555  0.36693  0.34600  1.0000
  N   N98       1.0  0.80785  0.34536  0.34533  1.0000
  C   C123      1.0  0.80141  0.31764  0.34643  1.0000
  N   N99       1.0  0.82283  0.31148  0.34762  1.0000
  C   C124      1.0  0.52430  0.84759  0.34808  1.0000
  N   N100      1.0  0.50274  0.85390  0.34750  1.0000
  C   C125      1.0  0.47478  0.83247  0.34601  1.0000
  N   N101      1.0  0.46867  0.80478  0.34534  1.0000
  C   C126      1.0  0.48996  0.79835  0.34644  1.0000
  N   N102      1.0  0.51753  0.81978  0.34762  1.0000
  C   C127      1.0  0.33560  0.49111  0.34811  1.0000
  N   N103      1.0  0.36347  0.51266  0.34754  1.0000
  C   C128      1.0  0.37002  0.54063  0.34609  1.0000
  N   N104      1.0  0.34845  0.54675  0.34542  1.0000
  C   C129      1.0  0.32072  0.52546  0.34650  1.0000
  N   N105      1.0  0.31457  0.49788  0.34765  1.0000
  C   C130      1.0  0.16783  0.67981  0.34808  1.0000
  N   N106      1.0  0.16150  0.65194  0.34752  1.0000
  C   C131      1.0  0.18291  0.64538  0.34602  1.0000
  N   N107      1.0  0.21061  0.66695  0.34534  1.0000
  C   C132      1.0  0.21706  0.69468  0.34644  1.0000
  N   N108      1.0  0.19563  0.70083  0.34762  1.0000
  C   C133      1.0  0.11982  0.33311  0.34639  1.0000
  N   N109      1.0  0.09098  0.31366  0.34726  1.0000
  C   C134      1.0  0.07082  0.32217  0.34631  1.0000
  N   N110      1.0  0.08034  0.35080  0.34511  1.0000
  C   C135      1.0  0.10874  0.37057  0.34461  1.0000
  N   N111      1.0  0.12799  0.36136  0.34523  1.0000
  C   C136      1.0  0.68230  0.78981  0.34635  1.0000
  N   N112      1.0  0.70173  0.78040  0.34723  1.0000
  C   C137      1.0  0.69322  0.75173  0.34631  1.0000
  N   N113      1.0  0.66458  0.73262  0.34512  1.0000
  C   C138      1.0  0.64482  0.74126  0.34461  1.0000
  N   N114      1.0  0.65404  0.76973  0.34521  1.0000
  C   C139      1.0  0.22560  0.89558  0.34635  1.0000
  N   N115      1.0  0.23501  0.92443  0.34723  1.0000
  C   C140      1.0  0.26367  0.94458  0.34632  1.0000
  N   N116      1.0  0.28278  0.93505  0.34512  1.0000
  C   C141      1.0  0.27414  0.90664  0.34459  1.0000
  N   N117      1.0  0.24568  0.88740  0.34520  1.0000
  C   C142      1.0  0.89866  0.67921  0.34637  1.0000
  N   N118      1.0  0.92751  0.69865  0.34725  1.0000
  C   C143      1.0  0.94766  0.69014  0.34630  1.0000
  N   N119      1.0  0.93813  0.66150  0.34508  1.0000
  C   C144      1.0  0.90973  0.64174  0.34458  1.0000
  N   N120      1.0  0.89049  0.65096  0.34520  1.0000
  C   C145      1.0  0.33619  0.22253  0.34639  1.0000
  N   N121      1.0  0.31675  0.23193  0.34725  1.0000
  C   C146      1.0  0.32526  0.26059  0.34630  1.0000
  N   N122      1.0  0.35389  0.27971  0.34510  1.0000
  C   C147      1.0  0.37366  0.27107  0.34461  1.0000
  N   N123      1.0  0.36445  0.24261  0.34523  1.0000
  C   C148      1.0  0.79289  0.11674  0.34634  1.0000
  N   N124      1.0  0.78347  0.08789  0.34723  1.0000
  C   C149      1.0  0.75481  0.06775  0.34632  1.0000
  N   N125      1.0  0.73570  0.07727  0.34512  1.0000
  C   C150      1.0  0.74434  0.10568  0.34460  1.0000
  N   N126      1.0  0.77281  0.12492  0.34521  1.0000
  C   C151      1.0  0.33619  0.11674  0.34754  1.0000
  N   N127      1.0  0.31675  0.08790  0.34674  1.0000
  C   C152      1.0  0.32526  0.06775  0.34753  1.0000
  N   N128      1.0  0.35390  0.07727  0.34848  1.0000
  C   C153      1.0  0.37366  0.10567  0.34893  1.0000
  N   N129      1.0  0.36445  0.12492  0.34845  1.0000
  C   C154      1.0  0.79287  0.67921  0.34746  1.0000
  N   N130      1.0  0.78347  0.69865  0.34669  1.0000
  C   C155      1.0  0.75481  0.69014  0.34753  1.0000
  N   N131      1.0  0.73569  0.66150  0.34849  1.0000
  C   C156      1.0  0.74433  0.64174  0.34889  1.0000
  N   N132      1.0  0.77279  0.65095  0.34839  1.0000
  C   C157      1.0  0.89865  0.22252  0.34748  1.0000
  N   N133      1.0  0.92749  0.23192  0.34673  1.0000
  C   C158      1.0  0.94765  0.26059  0.34752  1.0000
  N   N134      1.0  0.93813  0.27970  0.34845  1.0000
  C   C159      1.0  0.90973  0.27107  0.34885  1.0000
  N   N135      1.0  0.89048  0.24261  0.34837  1.0000
  C   C160      1.0  0.68228  0.89556  0.34751  1.0000
  N   N136      1.0  0.70172  0.92441  0.34674  1.0000
  C   C161      1.0  0.69321  0.94456  0.34753  1.0000
  N   N137      1.0  0.66457  0.93504  0.34846  1.0000
  C   C162      1.0  0.64481  0.90664  0.34887  1.0000
  N   N138      1.0  0.65402  0.88739  0.34839  1.0000
  C   C163      1.0  0.22560  0.33311  0.34752  1.0000
  N   N139      1.0  0.23502  0.31367  0.34673  1.0000
  C   C164      1.0  0.26368  0.32219  0.34752  1.0000
  N   N140      1.0  0.28279  0.35083  0.34847  1.0000
  C   C165      1.0  0.27415  0.37059  0.34892  1.0000
  N   N141      1.0  0.24569  0.36137  0.34843  1.0000
  C   C166      1.0  0.11983  0.78980  0.34746  1.0000
  N   N142      1.0  0.09098  0.78038  0.34671  1.0000
  C   C167      1.0  0.07083  0.75172  0.34751  1.0000
  N   N143      1.0  0.08036  0.73261  0.34844  1.0000
  C   C168      1.0  0.10876  0.74125  0.34884  1.0000
  N   N144      1.0  0.12800  0.76971  0.34836  1.0000
  C   C169      1.0  0.13974  0.44628  0.42814  1.0000
  C   C170      1.0  0.12483  0.41561  0.42824  1.0000
  N   N145      1.0  0.14830  0.46151  0.50734  1.0000
  H   H145      1.0  0.15751  0.48223  0.50910  1.0000
  H   H146      1.0  0.14734  0.45282  0.56516  1.0000
  N   N146      1.0  0.11572  0.40035  0.50725  1.0000
  H   H147      1.0  0.10484  0.37961  0.50826  1.0000
  H   H148      1.0  0.11598  0.40913  0.56430  1.0000
  C   C171      1.0  0.56911  0.69650  0.42824  1.0000
  C   C172      1.0  0.59978  0.71232  0.42831  1.0000
  N   N147      1.0  0.55387  0.68970  0.50742  1.0000
  H   H149      1.0  0.53315  0.67816  0.50908  1.0000
  H   H150      1.0  0.56254  0.69738  0.56530  1.0000
  N   N148      1.0  0.61506  0.71853  0.50728  1.0000
  H   H151      1.0  0.63582  0.72853  0.50839  1.0000
  H   H152      1.0  0.60633  0.71023  0.56458  1.0000
  C   C173      1.0  0.31893  0.87573  0.42827  1.0000
  C   C174      1.0  0.30307  0.89053  0.42835  1.0000
  N   N149      1.0  0.32581  0.86734  0.50742  1.0000
  H   H153      1.0  0.33741  0.85823  0.50904  1.0000
  H   H154      1.0  0.31831  0.86849  0.56544  1.0000
  N   N150      1.0  0.29679  0.89955  0.50731  1.0000
  H   H155      1.0  0.28676  0.91027  0.50841  1.0000
  H   H156      1.0  0.30500  0.89905  0.56471  1.0000
  C   C175      1.0  0.87873  0.56603  0.42814  1.0000
  C   C176      1.0  0.89362  0.59670  0.42823  1.0000
  N   N151      1.0  0.87022  0.55079  0.50733  1.0000
  H   H157      1.0  0.86105  0.53007  0.50905  1.0000
  H   H158      1.0  0.87122  0.55947  0.56520  1.0000
  N   N152      1.0  0.90270  0.61196  0.50725  1.0000
  H   H159      1.0  0.91354  0.63271  0.50824  1.0000
  H   H160      1.0  0.90233  0.60323  0.56446  1.0000
  C   C177      1.0  0.44937  0.31578  0.42814  1.0000
  C   C178      1.0  0.41870  0.30002  0.42824  1.0000
  N   N153      1.0  0.46460  0.32245  0.50735  1.0000
  H   H161      1.0  0.48532  0.33396  0.50910  1.0000
  H   H162      1.0  0.45590  0.31471  0.56516  1.0000
  N   N154      1.0  0.40344  0.29387  0.50725  1.0000
  H   H163      1.0  0.38269  0.28400  0.50826  1.0000
  H   H164      1.0  0.41221  0.30238  0.56430  1.0000
  C   C179      1.0  0.69958  0.13662  0.42824  1.0000
  C   C180      1.0  0.71541  0.12178  0.42831  1.0000
  N   N155      1.0  0.69279  0.14508  0.50741  1.0000
  H   H165      1.0  0.68125  0.15426  0.50907  1.0000
  H   H166      1.0  0.70047  0.14408  0.56529  1.0000
  N   N156      1.0  0.72161  0.11270  0.50728  1.0000
  H   H167      1.0  0.73161  0.10195  0.50839  1.0000
  H   H168      1.0  0.71331  0.11313  0.56458  1.0000
  C   C181      1.0  0.40371  0.11585  0.34871  1.0000
  C   C182      1.0  0.41873  0.12183  0.43254  1.0000
  C   C183      1.0  0.44940  0.13672  0.43238  1.0000
  C   C184      1.0  0.46442  0.14395  0.34827  1.0000
  N   N157      1.0  0.46466  0.14527  0.51152  1.0000
  H   H169      1.0  0.45599  0.14435  0.56935  1.0000
  H   H170      1.0  0.48539  0.15449  0.51314  1.0000
  N   N158      1.0  0.40349  0.11278  0.51158  1.0000
  H   H171      1.0  0.38273  0.10191  0.51258  1.0000
  H   H172      1.0  0.41224  0.11317  0.56879  1.0000
  C   C185      1.0  0.72445  0.61169  0.34875  1.0000
  C   C186      1.0  0.71545  0.59667  0.43261  1.0000
  C   C187      1.0  0.69959  0.56600  0.43244  1.0000
  C   C188      1.0  0.69184  0.55100  0.34831  1.0000
  N   N159      1.0  0.69271  0.55070  0.51151  1.0000
  H   H173      1.0  0.70021  0.55932  0.56956  1.0000
  H   H174      1.0  0.68108  0.52998  0.51303  1.0000
  N   N160      1.0  0.72178  0.61195  0.51161  1.0000
  H   H175      1.0  0.73178  0.63270  0.51273  1.0000
  H   H176      1.0  0.71365  0.60323  0.56904  1.0000
  C   C189      1.0  0.89956  0.29095  0.34872  1.0000
  C   C190      1.0  0.89357  0.29997  0.43257  1.0000
  C   C191      1.0  0.87875  0.31582  0.43240  1.0000
  C   C192      1.0  0.87142  0.32353  0.34833  1.0000
  N   N161      1.0  0.87032  0.32268  0.51150  1.0000
  H   H177      1.0  0.87140  0.31512  0.56950  1.0000
  H   H178      1.0  0.86116  0.33424  0.51304  1.0000
  N   N162      1.0  0.90257  0.29369  0.51154  1.0000
  H   H179      1.0  0.91333  0.28370  0.51265  1.0000
  H   H180      1.0  0.90202  0.30187  0.56894  1.0000
  C   C193      1.0  0.61476  0.89647  0.34870  1.0000
  C   C194      1.0  0.59974  0.89046  0.43256  1.0000
  C   C195      1.0  0.56907  0.87564  0.43240  1.0000
  C   C196      1.0  0.55406  0.86840  0.34828  1.0000
  N   N163      1.0  0.55379  0.86716  0.51150  1.0000
  H   H181      1.0  0.56243  0.86817  0.56944  1.0000
  H   H182      1.0  0.53307  0.85801  0.51306  1.0000
  N   N164      1.0  0.61501  0.89946  0.51155  1.0000
  H   H183      1.0  0.63577  0.91023  0.51268  1.0000
  H   H184      1.0  0.60628  0.89894  0.56892  1.0000
  C   C197      1.0  0.29402  0.40063  0.34870  1.0000
  C   C198      1.0  0.30306  0.41565  0.43254  1.0000
  C   C199      1.0  0.31884  0.44632  0.43238  1.0000
  C   C200      1.0  0.32663  0.46135  0.34827  1.0000
  N   N165      1.0  0.32555  0.46158  0.51152  1.0000
  H   H185      1.0  0.31781  0.45291  0.56935  1.0000
  H   H186      1.0  0.33706  0.48231  0.51314  1.0000
  N   N166      1.0  0.29687  0.40041  0.51157  1.0000
  H   H187      1.0  0.28698  0.37965  0.51257  1.0000
  H   H188      1.0  0.30522  0.40915  0.56879  1.0000
  C   C201      1.0  0.11893  0.72137  0.34871  1.0000
  C   C202      1.0  0.12494  0.71237  0.43258  1.0000
  C   C203      1.0  0.13974  0.69650  0.43243  1.0000
  C   C204      1.0  0.14702  0.68877  0.34833  1.0000
  N   N167      1.0  0.14816  0.68962  0.51150  1.0000
  H   H189      1.0  0.14702  0.69710  0.56956  1.0000
  H   H190      1.0  0.15725  0.67800  0.51302  1.0000
  N   N168      1.0  0.11598  0.71869  0.51157  1.0000
  H   H191      1.0  0.10523  0.72870  0.51267  1.0000
  H   H192      1.0  0.11657  0.71057  0.56900  1.0000
  C   C205      1.0  0.29775  0.53104  0.34569  1.0000
  C   C206      1.0  0.28578  0.53267  0.42986  1.0000
  C   C207      1.0  0.25834  0.53062  0.43030  1.0000
  C   C208      1.0  0.24560  0.53106  0.34629  1.0000
  N   N169      1.0  0.24395  0.52749  0.50970  1.0000
  H   H193      1.0  0.24985  0.52309  0.56624  1.0000
  H   H194      1.0  0.22546  0.52642  0.51185  1.0000
  N   N170      1.0  0.30062  0.53617  0.50847  1.0000
  H   H195      1.0  0.31971  0.53863  0.50899  1.0000
  H   H196      1.0  0.29506  0.54096  0.56498  1.0000
  C   C209      1.0  0.48437  0.76980  0.34561  1.0000
  C   C210      1.0  0.48273  0.75619  0.42978  1.0000
  C   C211      1.0  0.48478  0.73080  0.43024  1.0000
  C   C212      1.0  0.48437  0.71764  0.34623  1.0000
  N   N171      1.0  0.48791  0.71955  0.50964  1.0000
  H   H197      1.0  0.49230  0.72985  0.56619  1.0000
  H   H198      1.0  0.48900  0.70215  0.51181  1.0000
  N   N172      1.0  0.47921  0.76753  0.50839  1.0000
  H   H199      1.0  0.47674  0.78415  0.50890  1.0000
  H   H200      1.0  0.47441  0.75717  0.56488  1.0000
  C   C213      1.0  0.24562  0.71763  0.34561  1.0000
  C   C214      1.0  0.25920  0.72961  0.42980  1.0000
  C   C215      1.0  0.28459  0.75706  0.43024  1.0000
  C   C216      1.0  0.29776  0.76980  0.34621  1.0000
  N   N173      1.0  0.29583  0.77145  0.50964  1.0000
  H   H201      1.0  0.28553  0.76555  0.56618  1.0000
  H   H202      1.0  0.31325  0.78994  0.51181  1.0000
  N   N174      1.0  0.24786  0.71479  0.50846  1.0000
  H   H203      1.0  0.23129  0.69566  0.50877  1.0000
  H   H204      1.0  0.25823  0.72033  0.56491  1.0000
  C   C217      1.0  0.72072  0.48128  0.34568  1.0000
  C   C218      1.0  0.73271  0.47968  0.42986  1.0000
  C   C219      1.0  0.76014  0.48170  0.43030  1.0000
  C   C220      1.0  0.77286  0.48126  0.34627  1.0000
  N   N175      1.0  0.77453  0.48482  0.50967  1.0000
  H   H205      1.0  0.76860  0.48909  0.56637  1.0000
  H   H206      1.0  0.79297  0.48578  0.51188  1.0000
  N   N176      1.0  0.71788  0.47623  0.50848  1.0000
  H   H207      1.0  0.69880  0.47379  0.50899  1.0000
  H   H208      1.0  0.72345  0.47148  0.56504  1.0000
  C   C221      1.0  0.53412  0.24252  0.34569  1.0000
  C   C222      1.0  0.53576  0.25613  0.42985  1.0000
  C   C223      1.0  0.53371  0.28153  0.43030  1.0000
  C   C224      1.0  0.53415  0.29470  0.34628  1.0000
  N   N177      1.0  0.53058  0.29278  0.50970  1.0000
  H   H209      1.0  0.52618  0.28248  0.56624  1.0000
  H   H210      1.0  0.52951  0.31020  0.51185  1.0000
  N   N178      1.0  0.53925  0.24479  0.50847  1.0000
  H   H211      1.0  0.54171  0.22816  0.50899  1.0000
  H   H212      1.0  0.54405  0.25514  0.56498  1.0000
  C   C225      1.0  0.77285  0.29468  0.34561  1.0000
  C   C226      1.0  0.75925  0.28271  0.42979  1.0000
  C   C227      1.0  0.73387  0.25526  0.43024  1.0000
  C   C228      1.0  0.72071  0.24251  0.34622  1.0000
  N   N179      1.0  0.72261  0.24088  0.50964  1.0000
  H   H213      1.0  0.73290  0.24680  0.56620  1.0000
  H   H214      1.0  0.70520  0.22239  0.51180  1.0000
  N   N180      1.0  0.77059  0.29756  0.50839  1.0000
  H   H215      1.0  0.78722  0.31665  0.50890  1.0000
  H   H216      1.0  0.76025  0.29200  0.56491  1.0000
  C   C229      1.0  0.17625  0.57628  0.42942  1.0000
  C   C230      1.0  0.17814  0.60373  0.43005  1.0000
  N   N181      1.0  0.17296  0.56150  0.50803  1.0000
  H   H217      1.0  0.17066  0.54248  0.50858  1.0000
  H   H218      1.0  0.16828  0.56706  0.56471  1.0000
  N   N182      1.0  0.18117  0.61802  0.50957  1.0000
  H   H219      1.0  0.18201  0.63639  0.51206  1.0000
  H   H220      1.0  0.18551  0.61209  0.56616  1.0000
  C   C231      1.0  0.43911  0.60306  0.42944  1.0000
  C   C232      1.0  0.41168  0.57749  0.43007  1.0000
  N   N183      1.0  0.45388  0.61457  0.50805  1.0000
  H   H221      1.0  0.47289  0.63131  0.50861  1.0000
  H   H222      1.0  0.44832  0.60435  0.56477  1.0000
  N   N184      1.0  0.39742  0.56620  0.50961  1.0000
  H   H223      1.0  0.37904  0.54866  0.51204  1.0000
  H   H224      1.0  0.40332  0.57646  0.56620  1.0000
  C   C233      1.0  0.41234  0.83913  0.42936  1.0000
  C   C234      1.0  0.43789  0.83723  0.42999  1.0000
  N   N185      1.0  0.40085  0.84243  0.50797  1.0000
  H   H225      1.0  0.38414  0.84474  0.50852  1.0000
  H   H226      1.0  0.41110  0.84711  0.56464  1.0000
  N   N186      1.0  0.44914  0.83421  0.50955  1.0000
  H   H227      1.0  0.46663  0.83329  0.51199  1.0000
  H   H228      1.0  0.43878  0.82974  0.56599  1.0000
  C   C235      1.0  0.84222  0.43604  0.42941  1.0000
  C   C236      1.0  0.84029  0.40857  0.43003  1.0000
  N   N187      1.0  0.84551  0.45081  0.50806  1.0000
  H   H229      1.0  0.84796  0.46989  0.50842  1.0000
  H   H230      1.0  0.85040  0.44529  0.56446  1.0000
  N   N188      1.0  0.83720  0.39427  0.50955  1.0000
  H   H231      1.0  0.83633  0.37588  0.51206  1.0000
  H   H232      1.0  0.83281  0.40019  0.56608  1.0000
  C   C237      1.0  0.57937  0.40928  0.42944  1.0000
  C   C238      1.0  0.60682  0.43483  0.43007  1.0000
  N   N189      1.0  0.56459  0.39778  0.50804  1.0000
  H   H233      1.0  0.54557  0.38105  0.50859  1.0000
  H   H234      1.0  0.57015  0.40802  0.56473  1.0000
  N   N190      1.0  0.62110  0.44610  0.50959  1.0000
  H   H235      1.0  0.63947  0.46364  0.51209  1.0000
  H   H236      1.0  0.61517  0.43584  0.56619  1.0000
  C   C239      1.0  0.60613  0.17317  0.42943  1.0000
  C   C240      1.0  0.58056  0.17504  0.43006  1.0000
  N   N191      1.0  0.61764  0.16992  0.50804  1.0000
  H   H237      1.0  0.63438  0.16764  0.50860  1.0000
  H   H238      1.0  0.60742  0.16526  0.56475  1.0000
  N   N192      1.0  0.56928  0.17802  0.50961  1.0000
  H   H239      1.0  0.55174  0.17885  0.51203  1.0000
  H   H240      1.0  0.57954  0.18237  0.56619  1.0000
  C   C241      1.0  0.04015  0.30283  0.34714  1.0000
  C   C242      1.0  0.02455  0.29574  0.43029  1.0000
  C   C243      1.0  0.99380  0.27864  0.43006  1.0000
  C   C244      1.0  0.97832  0.27193  0.34677  1.0000
  N   N193      1.0  0.97888  0.26830  0.50908  1.0000
  H   H241      1.0  0.98823  0.26871  0.56519  1.0000
  H   H242      1.0  0.95827  0.25582  0.50996  1.0000
  N   N194      1.0  0.03927  0.30610  0.50964  1.0000
  H   H243      1.0  0.05999  0.31737  0.51208  1.0000
  H   H244      1.0  0.02986  0.30552  0.56581  1.0000
  C   C245      1.0  0.71254  0.74038  0.34710  1.0000
  C   C246      1.0  0.71960  0.73184  0.43026  1.0000
  C   C247      1.0  0.73671  0.71820  0.43003  1.0000
  C   C248      1.0  0.74346  0.70947  0.34673  1.0000
  N   N195      1.0  0.74703  0.71360  0.50907  1.0000
  H   H245      1.0  0.74659  0.72251  0.56520  1.0000
  H   H246      1.0  0.75952  0.70548  0.50997  1.0000
  N   N196      1.0  0.70921  0.73616  0.50959  1.0000
  H   H247      1.0  0.69793  0.74561  0.51204  1.0000
  H   H248      1.0  0.70976  0.72730  0.56573  1.0000
  C   C249      1.0  0.27503  0.97525  0.34710  1.0000
  C   C250      1.0  0.28354  0.99085  0.43026  1.0000
  C   C251      1.0  0.29718  0.02159  0.43003  1.0000
  C   C252      1.0  0.30593  0.03707  0.34673  1.0000
  N   N197      1.0  0.30177  0.03651  0.50907  1.0000
  H   H249      1.0  0.29285  0.02716  0.56518  1.0000
  H   H250      1.0  0.30990  0.05713  0.50996  1.0000
  N   N198      1.0  0.27920  0.97614  0.50964  1.0000
  H   H251      1.0  0.26978  0.95542  0.51200  1.0000
  H   H252      1.0  0.28808  0.98555  0.56574  1.0000
  C   C253      1.0  0.97833  0.70947  0.34710  1.0000
  C   C254      1.0  0.99392  0.71659  0.43028  1.0000
  C   C255      1.0  0.02467  0.73365  0.43004  1.0000
  C   C256      1.0  0.04015  0.74037  0.34675  1.0000
  N   N199      1.0  0.03961  0.74399  0.50903  1.0000
  H   H253      1.0  0.03033  0.74342  0.56543  1.0000
  H   H254      1.0  0.06025  0.75634  0.51011  1.0000
  N   N200      1.0  0.97919  0.70627  0.50962  1.0000
  H   H255      1.0  0.95847  0.69503  0.51204  1.0000
  H   H256      1.0  0.98858  0.70688  0.56587  1.0000
  C   C257      1.0  0.30593  0.27194  0.34712  1.0000
  C   C258      1.0  0.29883  0.28044  0.43028  1.0000
  C   C259      1.0  0.28173  0.29409  0.43005  1.0000
  C   C260      1.0  0.27503  0.30286  0.34675  1.0000
  N   N201      1.0  0.27139  0.29867  0.50907  1.0000
  H   H257      1.0  0.27180  0.28973  0.56517  1.0000
  H   H258      1.0  0.25891  0.30680  0.50995  1.0000
  N   N202      1.0  0.30920  0.27610  0.50962  1.0000
  H   H259      1.0  0.32048  0.26665  0.51206  1.0000
  H   H260      1.0  0.30863  0.28493  0.56578  1.0000
  C   C261      1.0  0.74346  0.03707  0.34711  1.0000
  C   C262      1.0  0.73494  0.02148  0.43027  1.0000
  C   C263      1.0  0.72128  0.99073  0.43005  1.0000
  C   C264      1.0  0.71254  0.97524  0.34677  1.0000
  N   N203      1.0  0.71667  0.97580  0.50910  1.0000
  H   H261      1.0  0.72558  0.98515  0.56522  1.0000
  H   H262      1.0  0.70853  0.95519  0.50999  1.0000
  N   N204      1.0  0.73928  0.03619  0.50961  1.0000
  H   H263      1.0  0.74874  0.05692  0.51206  1.0000
  H   H264      1.0  0.73043  0.02679  0.56577  1.0000
  C   C265      1.0  0.19602  0.32626  0.34654  1.0000
  C   C266      1.0  0.18205  0.32493  0.42997  1.0000
  C   C267      1.0  0.15642  0.32691  0.43047  1.0000
  C   C268      1.0  0.14257  0.32628  0.34739  1.0000
  N   N205      1.0  0.14540  0.33027  0.50996  1.0000
  H   H265      1.0  0.15591  0.33495  0.56615  1.0000
  H   H266      1.0  0.12787  0.33112  0.51248  1.0000
  N   N206      1.0  0.19343  0.32162  0.50871  1.0000
  H   H267      1.0  0.20991  0.31889  0.50899  1.0000
  H   H268      1.0  0.18307  0.31686  0.56518  1.0000
  C   C269      1.0  0.68912  0.87282  0.34658  1.0000
  C   C270      1.0  0.69048  0.86019  0.43001  1.0000
  C   C271      1.0  0.68856  0.83262  0.43051  1.0000
  C   C272      1.0  0.68914  0.81939  0.34739  1.0000
  N   N207      1.0  0.68528  0.81825  0.50995  1.0000
  H   H269      1.0  0.68079  0.82412  0.56638  1.0000
  H   H270      1.0  0.68456  0.79992  0.51249  1.0000
  N   N208      1.0  0.69376  0.87491  0.50869  1.0000
  H   H271      1.0  0.69635  0.89405  0.50919  1.0000
  H   H272      1.0  0.69843  0.86928  0.56528  1.0000
  C   C273      1.0  0.14257  0.81937  0.34656  1.0000
  C   C274      1.0  0.15519  0.83338  0.42997  1.0000
  C   C275      1.0  0.18277  0.85902  0.43050  1.0000
  C   C276      1.0  0.19602  0.87284  0.34741  1.0000
  N   N209      1.0  0.19713  0.87009  0.50998  1.0000
  H   H273      1.0  0.19129  0.85963  0.56624  1.0000
  H   H274      1.0  0.21550  0.88764  0.51248  1.0000
  N   N210      1.0  0.14046  0.82198  0.50864  1.0000
  H   H275      1.0  0.12131  0.80542  0.50913  1.0000
  H   H276      1.0  0.14608  0.83230  0.56519  1.0000
  C   C277      1.0  0.82245  0.68605  0.34648  1.0000
  C   C278      1.0  0.83644  0.68742  0.42991  1.0000
  C   C279      1.0  0.86207  0.68545  0.43047  1.0000
  C   C280      1.0  0.87592  0.68605  0.34740  1.0000
  N   N211      1.0  0.87310  0.68211  0.50996  1.0000
  H   H277      1.0  0.86260  0.67745  0.56616  1.0000
  H   H278      1.0  0.89064  0.68127  0.51249  1.0000
  N   N212      1.0  0.82505  0.69077  0.50859  1.0000
  H   H279      1.0  0.80852  0.69339  0.50907  1.0000
  H   H280      1.0  0.83539  0.69548  0.56512  1.0000
  C   C281      1.0  0.32934  0.13948  0.34655  1.0000
  C   C282      1.0  0.32801  0.15213  0.42997  1.0000
  C   C283      1.0  0.32999  0.17973  0.43048  1.0000
  C   C284      1.0  0.32936  0.19295  0.34739  1.0000
  N   N213      1.0  0.33335  0.19411  0.50996  1.0000
  H   H281      1.0  0.33804  0.18828  0.56615  1.0000
  H   H282      1.0  0.33420  0.21249  0.51248  1.0000
  N   N214      1.0  0.32470  0.13743  0.50872  1.0000
  H   H283      1.0  0.32197  0.11823  0.50901  1.0000
  H   H284      1.0  0.31994  0.14303  0.56518  1.0000
  C   C285      1.0  0.87590  0.19294  0.34659  1.0000
  C   C286      1.0  0.86328  0.17894  0.42999  1.0000
  C   C287      1.0  0.83570  0.15328  0.43051  1.0000
  C   C288      1.0  0.82247  0.13948  0.34738  1.0000
  N   N215      1.0  0.82134  0.14218  0.50995  1.0000
  H   H285      1.0  0.82722  0.15254  0.56639  1.0000
  H   H286      1.0  0.80302  0.12457  0.51248  1.0000
  N   N216      1.0  0.87799  0.19037  0.50868  1.0000
  H   H287      1.0  0.89713  0.20693  0.50917  1.0000
  H   H288      1.0  0.87236  0.18007  0.56526  1.0000
