data_image0
_chemical_formula_structural       C13H9C13H9C15H9C15H9C7NC12H12C7NC12H12C14H12C14H12C17H12C17H12C15H12C15H12CNC2NC4NC18H14CNC2NC4NC18H14C3NC2NC5NC3NC17H14C3NC2NC5NC3NC17H14
_chemical_formula_sum              "C296 H188 N16"
_cell_length_a       77.4749
_cell_length_b       32.2171
_cell_length_c       14.9693
_cell_angle_alpha    90
_cell_angle_beta     89.9842
_cell_angle_gamma    90.0268

_space_group_name_H-M_alt    "P 1"
_space_group_IT_number       1

loop_
  _space_group_symop_operation_xyz
  'x, y, z'

loop_
  _atom_site_type_symbol
  _atom_site_label
  _atom_site_symmetry_multiplicity
  _atom_site_fract_x
  _atom_site_fract_y
  _atom_site_fract_z
  _atom_site_occupancy
  C   C1        1.0  0.28720  0.99673  0.33200  1.0000
  C   C2        1.0  0.25026  0.99483  0.32874  1.0000
  C   C3        1.0  0.26006  0.96130  0.29492  1.0000
  C   C4        1.0  0.27822  0.96225  0.29642  1.0000
  C   C5        1.0  0.23230  0.99338  0.32422  1.0000
  C   C6        1.0  0.16503  0.10104  0.31210  1.0000
  C   C7        1.0  0.16537  0.17338  0.26874  1.0000
  C   C8        1.0  0.14257  0.22158  0.31565  1.0000
  C   C9        1.0  0.15813  0.21338  0.26940  1.0000
  C   C10       1.0  0.16074  0.90489  0.33366  1.0000
  C   C11       1.0  0.16344  0.83238  0.38117  1.0000
  C   C12       1.0  0.14031  0.78255  0.34880  1.0000
  C   C13       1.0  0.15668  0.79193  0.38541  1.0000
  H   H1        1.0  0.28484  0.93714  0.27228  1.0000
  H   H2        1.0  0.25404  0.93564  0.26902  1.0000
  H   H3        1.0  0.17557  0.83753  0.40594  1.0000
  H   H4        1.0  0.17680  0.16897  0.23556  1.0000
  H   H5        1.0  0.16462  0.23681  0.23758  1.0000
  H   H6        1.0  0.16413  0.76901  0.41297  1.0000
  H   H7        1.0  0.17108  0.09294  0.25598  1.0000
  H   H8        1.0  0.22708  0.98082  0.26974  1.0000
  H   H9        1.0  0.15938  0.91920  0.27512  1.0000
  C   C14       1.0  0.74568  0.00481  0.33204  1.0000
  C   C15       1.0  0.78262  0.00670  0.32879  1.0000
  C   C16       1.0  0.77283  0.04024  0.29498  1.0000
  C   C17       1.0  0.75467  0.03929  0.29645  1.0000
  C   C18       1.0  0.80059  0.00814  0.32427  1.0000
  C   C19       1.0  0.86787  0.90053  0.31208  1.0000
  C   C20       1.0  0.86751  0.82817  0.26887  1.0000
  C   C21       1.0  0.89032  0.77998  0.31573  1.0000
  C   C22       1.0  0.87475  0.78816  0.26958  1.0000
  C   C23       1.0  0.87215  0.09665  0.33366  1.0000
  C   C24       1.0  0.86942  0.16918  0.38100  1.0000
  C   C25       1.0  0.89256  0.21902  0.34877  1.0000
  C   C26       1.0  0.87617  0.20964  0.38525  1.0000
  H   H10       1.0  0.74805  0.06439  0.27230  1.0000
  H   H11       1.0  0.77885  0.06589  0.26906  1.0000
  H   H12       1.0  0.85728  0.16402  0.40572  1.0000
  H   H13       1.0  0.85608  0.83257  0.23576  1.0000
  H   H14       1.0  0.86826  0.76474  0.23781  1.0000
  H   H15       1.0  0.86871  0.23256  0.41276  1.0000
  H   H16       1.0  0.86181  0.90860  0.25598  1.0000
  H   H17       1.0  0.80582  0.02071  0.26980  1.0000
  H   H18       1.0  0.87354  0.08233  0.27515  1.0000
  C   C27       1.0  0.78720  0.49653  0.33198  1.0000
  C   C28       1.0  0.75026  0.49465  0.32864  1.0000
  C   C29       1.0  0.76006  0.46109  0.29492  1.0000
  C   C30       1.0  0.77822  0.46204  0.29645  1.0000
  C   C31       1.0  0.73230  0.49319  0.32410  1.0000
  C   C32       1.0  0.66501  0.60082  0.31177  1.0000
  C   C33       1.0  0.65729  0.63989  0.31385  1.0000
  C   C34       1.0  0.66537  0.67319  0.26861  1.0000
  C   C35       1.0  0.64257  0.72138  0.31544  1.0000
  C   C36       1.0  0.65814  0.71320  0.26936  1.0000
  C   C37       1.0  0.66074  0.40471  0.33327  1.0000
  C   C38       1.0  0.65391  0.36485  0.34119  1.0000
  C   C39       1.0  0.66347  0.33218  0.38054  1.0000
  C   C40       1.0  0.64033  0.28234  0.34840  1.0000
  C   C41       1.0  0.65672  0.29171  0.38477  1.0000
  H   H19       1.0  0.78484  0.43691  0.27240  1.0000
  H   H20       1.0  0.75405  0.43541  0.26908  1.0000
  H   H21       1.0  0.67562  0.33732  0.40511  1.0000
  H   H22       1.0  0.67681  0.66878  0.23551  1.0000
  H   H23       1.0  0.66464  0.73662  0.23757  1.0000
  H   H24       1.0  0.66419  0.26878  0.41216  1.0000
  H   H25       1.0  0.67107  0.59275  0.25568  1.0000
  H   H26       1.0  0.72708  0.48058  0.26966  1.0000
  H   H27       1.0  0.65936  0.41903  0.27475  1.0000
  C   C42       1.0  0.24567  0.50505  0.33209  1.0000
  C   C43       1.0  0.28262  0.50696  0.32874  1.0000
  C   C44       1.0  0.27281  0.54053  0.29510  1.0000
  C   C45       1.0  0.25466  0.53957  0.29664  1.0000
  C   C46       1.0  0.30058  0.50842  0.32414  1.0000
  C   C47       1.0  0.36789  0.40076  0.31174  1.0000
  C   C48       1.0  0.37560  0.36168  0.31380  1.0000
  C   C49       1.0  0.36753  0.32841  0.26839  1.0000
  C   C50       1.0  0.39031  0.28018  0.31537  1.0000
  C   C51       1.0  0.37476  0.28840  0.26912  1.0000
  C   C52       1.0  0.37215  0.59687  0.33322  1.0000
  C   C53       1.0  0.37898  0.63672  0.34118  1.0000
  C   C54       1.0  0.36943  0.66940  0.38054  1.0000
  C   C55       1.0  0.39257  0.71923  0.34836  1.0000
  C   C56       1.0  0.37618  0.70986  0.38479  1.0000
  H   H28       1.0  0.24803  0.56471  0.27264  1.0000
  H   H29       1.0  0.27883  0.56622  0.26931  1.0000
  H   H30       1.0  0.35728  0.66426  0.40517  1.0000
  H   H31       1.0  0.35611  0.33283  0.23525  1.0000
  H   H32       1.0  0.36827  0.26498  0.23731  1.0000
  H   H33       1.0  0.36871  0.73279  0.41222  1.0000
  H   H34       1.0  0.36187  0.40887  0.25554  1.0000
  H   H35       1.0  0.30579  0.52106  0.26971  1.0000
  H   H36       1.0  0.37355  0.58255  0.27471  1.0000
  C   C57       1.0  0.43794  0.10818  0.34243  1.0000
  C   C58       1.0  0.44275  0.03916  0.33933  1.0000
  C   C59       1.0  0.38943  0.08871  0.33108  1.0000
  C   C60       1.0  0.36967  0.96150  0.34052  1.0000
  C   C61       1.0  0.37430  0.89270  0.34611  1.0000
  C   C62       1.0  0.40663  0.89158  0.34309  1.0000
  C   C63       1.0  0.42294  0.91160  0.34001  1.0000
  N   N1        1.0  0.42625  0.95283  0.34069  1.0000
  C   C64       1.0  0.45154  0.92234  0.33438  1.0000
  C   C65       1.0  0.43898  0.89195  0.33657  1.0000
  C   C66       1.0  0.49765  0.01319  0.26274  1.0000
  C   C67       1.0  0.47947  0.01298  0.26230  1.0000
  C   C68       1.0  0.40632  0.84735  0.34637  1.0000
  C   C69       1.0  0.39875  0.76085  0.34893  1.0000
  C   C70       1.0  0.40316  0.78106  0.26813  1.0000
  C   C71       1.0  0.40675  0.82389  0.26668  1.0000
  C   C72       1.0  0.33341  0.98954  0.25648  1.0000
  C   C73       1.0  0.31526  0.98840  0.25551  1.0000
  C   C74       1.0  0.40304  0.17281  0.24383  1.0000
  C   C75       1.0  0.39878  0.21519  0.23984  1.0000
  H   H37       1.0  0.39627  0.22812  0.17872  1.0000
  H   H38       1.0  0.40313  0.15582  0.18597  1.0000
  H   H39       1.0  0.44021  0.13943  0.34525  1.0000
  H   H40       1.0  0.34004  0.98290  0.19901  1.0000
  H   H41       1.0  0.30914  0.98138  0.19681  1.0000
  H   H42       1.0  0.37186  0.86153  0.34812  1.0000
  H   H43       1.0  0.46450  0.91662  0.33102  1.0000
  H   H44       1.0  0.44134  0.86074  0.33505  1.0000
  H   H45       1.0  0.40867  0.83827  0.20647  1.0000
  H   H46       1.0  0.40258  0.76539  0.20867  1.0000
  H   H47       1.0  0.47310  0.02185  0.20549  1.0000
  H   H48       1.0  0.50387  0.02301  0.20627  1.0000
  C   C76       1.0  0.59493  0.89338  0.34200  1.0000
  C   C77       1.0  0.59012  0.96241  0.33913  1.0000
  C   C78       1.0  0.64345  0.91283  0.33111  1.0000
  C   C79       1.0  0.66322  0.04004  0.34042  1.0000
  C   C80       1.0  0.65858  0.10884  0.34603  1.0000
  C   C81       1.0  0.62626  0.10997  0.34305  1.0000
  C   C82       1.0  0.60994  0.08996  0.33999  1.0000
  N   N2        1.0  0.60663  0.04874  0.34065  1.0000
  C   C83       1.0  0.58134  0.07923  0.33447  1.0000
  C   C84       1.0  0.59391  0.10961  0.33669  1.0000
  C   C85       1.0  0.53524  0.98846  0.26269  1.0000
  C   C86       1.0  0.55341  0.98866  0.26223  1.0000
  C   C87       1.0  0.62658  0.15420  0.34637  1.0000
  C   C88       1.0  0.63415  0.24071  0.34893  1.0000
  C   C89       1.0  0.62974  0.22052  0.26815  1.0000
  C   C90       1.0  0.62615  0.17768  0.26670  1.0000
  C   C91       1.0  0.69949  0.01198  0.25644  1.0000
  C   C92       1.0  0.71764  0.01313  0.25550  1.0000
  C   C93       1.0  0.62984  0.82874  0.24379  1.0000
  C   C94       1.0  0.63412  0.78637  0.23984  1.0000
  H   H49       1.0  0.63667  0.77345  0.17874  1.0000
  H   H50       1.0  0.62981  0.84572  0.18593  1.0000
  H   H51       1.0  0.59266  0.86213  0.34481  1.0000
  H   H52       1.0  0.69287  0.01862  0.19895  1.0000
  H   H53       1.0  0.72377  0.02014  0.19681  1.0000
  H   H54       1.0  0.66103  0.14002  0.34805  1.0000
  H   H55       1.0  0.56838  0.08496  0.33112  1.0000
  H   H56       1.0  0.59155  0.14083  0.33511  1.0000
  H   H57       1.0  0.62419  0.16332  0.20651  1.0000
  H   H58       1.0  0.63028  0.23619  0.20869  1.0000
  H   H59       1.0  0.55979  0.97983  0.20539  1.0000
  H   H60       1.0  0.52901  0.97867  0.20620  1.0000
  C   C95       1.0  0.88943  0.58852  0.33139  1.0000
  C   C96       1.0  0.90663  0.39138  0.34345  1.0000
  C   C97       1.0  0.92294  0.41140  0.34035  1.0000
  C   C98       1.0  0.95155  0.42214  0.33481  1.0000
  C   C99       1.0  0.93898  0.39175  0.33705  1.0000
  C   C100      1.0  0.99764  0.51296  0.26294  1.0000
  C   C101      1.0  0.97947  0.51271  0.26250  1.0000
  C   C102      1.0  0.90631  0.34715  0.34682  1.0000
  C   C103      1.0  0.90313  0.28087  0.26853  1.0000
  C   C104      1.0  0.90672  0.32370  0.26711  1.0000
  C   C105      1.0  0.83342  0.48929  0.25660  1.0000
  C   C106      1.0  0.81527  0.48816  0.25559  1.0000
  C   C107      1.0  0.90304  0.67262  0.24411  1.0000
  C   C108      1.0  0.89880  0.71501  0.24013  1.0000
  H   H61       1.0  0.89624  0.72792  0.17904  1.0000
  H   H62       1.0  0.90311  0.65563  0.18625  1.0000
  H   H63       1.0  0.94021  0.63924  0.34512  1.0000
  H   H64       1.0  0.84005  0.48262  0.19916  1.0000
  H   H65       1.0  0.80915  0.48110  0.19689  1.0000
  H   H66       1.0  0.87186  0.36134  0.34886  1.0000
  H   H67       1.0  0.96451  0.41642  0.33151  1.0000
  H   H68       1.0  0.94134  0.36054  0.33549  1.0000
  H   H69       1.0  0.90867  0.33808  0.20691  1.0000
  H   H70       1.0  0.90258  0.26521  0.20907  1.0000
  H   H71       1.0  0.97308  0.52150  0.20565  1.0000
  H   H72       1.0  0.00386  0.52275  0.20643  1.0000
  C   C109      1.0  0.14345  0.41306  0.33107  1.0000
  C   C110      1.0  0.12625  0.61018  0.34350  1.0000
  C   C111      1.0  0.10993  0.59016  0.34026  1.0000
  C   C112      1.0  0.08133  0.57942  0.33435  1.0000
  C   C113      1.0  0.09390  0.60981  0.33659  1.0000
  C   C114      1.0  0.03525  0.48836  0.26310  1.0000
  C   C115      1.0  0.05342  0.48863  0.26266  1.0000
  C   C116      1.0  0.12656  0.65441  0.34683  1.0000
  C   C117      1.0  0.12974  0.72071  0.26853  1.0000
  C   C118      1.0  0.12620  0.67785  0.26709  1.0000
  C   C119      1.0  0.19946  0.51235  0.25671  1.0000
  C   C120      1.0  0.21762  0.51347  0.25570  1.0000
  C   C121      1.0  0.12983  0.32893  0.24407  1.0000
  C   C122      1.0  0.13408  0.28654  0.24008  1.0000
  H   H73       1.0  0.13661  0.27361  0.17896  1.0000
  H   H74       1.0  0.12973  0.34589  0.18619  1.0000
  H   H75       1.0  0.09268  0.36236  0.34642  1.0000
  H   H76       1.0  0.19284  0.51907  0.19929  1.0000
  H   H77       1.0  0.22374  0.52059  0.19704  1.0000
  H   H78       1.0  0.16102  0.64022  0.34923  1.0000
  H   H79       1.0  0.06837  0.58514  0.33086  1.0000
  H   H80       1.0  0.09154  0.64102  0.33494  1.0000
  H   H81       1.0  0.12428  0.66347  0.20688  1.0000
  H   H82       1.0  0.13038  0.73632  0.20903  1.0000
  H   H83       1.0  0.05981  0.47970  0.20591  1.0000
  H   H84       1.0  0.02903  0.47843  0.20669  1.0000
  C   C123      1.0  0.27740  0.03036  0.36551  1.0000
  C   C124      1.0  0.25925  0.02960  0.36318  1.0000
  C   C125      1.0  0.22167  0.00638  0.38956  1.0000
  C   C126      1.0  0.20386  0.00393  0.38391  1.0000
  C   C127      1.0  0.19535  0.96519  0.38863  1.0000
  C   C128      1.0  0.17713  0.96282  0.38875  1.0000
  C   C129      1.0  0.16737  0.99984  0.38533  1.0000
  C   C130      1.0  0.17566  0.03886  0.38052  1.0000
  C   C131      1.0  0.19390  0.04060  0.38074  1.0000
  C   C132      1.0  0.16615  0.07525  0.38252  1.0000
  C   C133      1.0  0.15730  0.14011  0.31413  1.0000
  C   C134      1.0  0.14161  0.14816  0.35945  1.0000
  C   C135      1.0  0.13446  0.18837  0.36103  1.0000
  C   C136      1.0  0.16923  0.92462  0.39956  1.0000
  C   C137      1.0  0.15391  0.86505  0.34162  1.0000
  C   C138      1.0  0.13758  0.85560  0.30439  1.0000
  C   C139      1.0  0.13091  0.81494  0.30763  1.0000
  H   H85       1.0  0.28343  0.05625  0.39005  1.0000
  H   H86       1.0  0.25266  0.05500  0.38612  1.0000
  H   H87       1.0  0.19999  0.06889  0.37988  1.0000
  H   H88       1.0  0.20252  0.93851  0.39370  1.0000
  H   H89       1.0  0.15415  0.99840  0.38795  1.0000
  H   H90       1.0  0.12313  0.19310  0.39477  1.0000
  H   H91       1.0  0.13522  0.12481  0.39203  1.0000
  H   H92       1.0  0.11907  0.80918  0.27988  1.0000
  H   H93       1.0  0.13043  0.87828  0.27392  1.0000
  H   H94       1.0  0.16078  0.08306  0.44047  1.0000
  H   H95       1.0  0.22658  0.01860  0.44504  1.0000
  H   H96       1.0  0.17086  0.91058  0.45816  1.0000
  C   C140      1.0  0.75547  0.97120  0.36563  1.0000
  C   C141      1.0  0.77363  0.97194  0.36325  1.0000
  C   C142      1.0  0.81120  0.99516  0.38962  1.0000
  C   C143      1.0  0.82902  0.99760  0.38398  1.0000
  C   C144      1.0  0.83752  0.03635  0.38865  1.0000
  C   C145      1.0  0.85574  0.03873  0.38871  1.0000
  C   C146      1.0  0.86551  0.00171  0.38529  1.0000
  C   C147      1.0  0.85722  0.96269  0.38052  1.0000
  C   C148      1.0  0.83898  0.96094  0.38080  1.0000
  C   C149      1.0  0.86674  0.92631  0.38252  1.0000
  C   C150      1.0  0.87559  0.86146  0.31416  1.0000
  C   C151      1.0  0.89129  0.85342  0.35939  1.0000
  C   C152      1.0  0.89843  0.81321  0.36098  1.0000
  C   C153      1.0  0.86363  0.07694  0.39952  1.0000
  C   C154      1.0  0.87898  0.13650  0.34162  1.0000
  C   C155      1.0  0.89532  0.14594  0.30453  1.0000
  C   C156      1.0  0.90198  0.18662  0.30775  1.0000
  H   H97       1.0  0.74944  0.94529  0.39008  1.0000
  H   H98       1.0  0.78022  0.94654  0.38618  1.0000
  H   H99       1.0  0.83289  0.93265  0.37994  1.0000
  H   H100      1.0  0.83035  0.06303  0.39372  1.0000
  H   H101      1.0  0.87872  0.00316  0.38791  1.0000
  H   H102      1.0  0.90977  0.80849  0.39464  1.0000
  H   H103      1.0  0.89768  0.87679  0.39187  1.0000
  H   H104      1.0  0.91383  0.19238  0.28011  1.0000
  H   H105      1.0  0.90249  0.12326  0.27415  1.0000
  H   H106      1.0  0.87210  0.91849  0.44046  1.0000
  H   H107      1.0  0.80629  0.98294  0.44510  1.0000
  H   H108      1.0  0.86198  0.09100  0.45808  1.0000
  C   C157      1.0  0.77740  0.53017  0.36541  1.0000
  C   C158      1.0  0.75925  0.52943  0.36300  1.0000
  C   C159      1.0  0.72167  0.50625  0.38936  1.0000
  C   C160      1.0  0.70385  0.50378  0.38370  1.0000
  C   C161      1.0  0.69536  0.46502  0.38831  1.0000
  C   C162      1.0  0.67714  0.46262  0.38839  1.0000
  C   C163      1.0  0.66736  0.49963  0.38498  1.0000
  C   C164      1.0  0.67565  0.53866  0.38021  1.0000
  C   C165      1.0  0.69389  0.54043  0.38048  1.0000
  C   C166      1.0  0.66613  0.57503  0.38221  1.0000
  C   C167      1.0  0.64158  0.64793  0.35905  1.0000
  C   C168      1.0  0.63443  0.68814  0.36062  1.0000
  C   C169      1.0  0.66926  0.42440  0.39913  1.0000
  C   C170      1.0  0.63757  0.35542  0.30423  1.0000
  C   C171      1.0  0.63091  0.31475  0.30746  1.0000
  H   H109      1.0  0.78343  0.55607  0.38989  1.0000
  H   H110      1.0  0.75266  0.55484  0.38589  1.0000
  H   H111      1.0  0.69997  0.56873  0.37969  1.0000
  H   H112      1.0  0.70253  0.43835  0.39341  1.0000
  H   H113      1.0  0.65415  0.49816  0.38756  1.0000
  H   H114      1.0  0.62310  0.69286  0.39427  1.0000
  H   H115      1.0  0.63518  0.62457  0.39150  1.0000
  H   H116      1.0  0.61905  0.30899  0.27989  1.0000
  H   H117      1.0  0.63039  0.37812  0.27393  1.0000
  H   H118      1.0  0.66076  0.58285  0.44014  1.0000
  H   H119      1.0  0.72657  0.51852  0.44480  1.0000
  H   H120      1.0  0.67087  0.41035  0.45772  1.0000
  C   C172      1.0  0.25547  0.47140  0.36546  1.0000
  C   C173      1.0  0.27363  0.47216  0.36302  1.0000
  C   C174      1.0  0.31121  0.49531  0.38932  1.0000
  C   C175      1.0  0.32903  0.49779  0.38360  1.0000
  C   C176      1.0  0.33752  0.53655  0.38825  1.0000
  C   C177      1.0  0.35573  0.53896  0.38827  1.0000
  C   C178      1.0  0.36551  0.50195  0.38485  1.0000
  C   C179      1.0  0.35723  0.46291  0.38010  1.0000
  C   C180      1.0  0.33900  0.46114  0.38043  1.0000
  C   C181      1.0  0.36676  0.42655  0.38215  1.0000
  C   C182      1.0  0.39129  0.35360  0.35914  1.0000
  C   C183      1.0  0.39842  0.31339  0.36074  1.0000
  C   C184      1.0  0.36362  0.57718  0.39905  1.0000
  C   C185      1.0  0.39532  0.64615  0.30414  1.0000
  C   C186      1.0  0.40199  0.68682  0.30738  1.0000
  H   H121      1.0  0.24944  0.44547  0.38980  1.0000
  H   H122      1.0  0.28022  0.44673  0.38579  1.0000
  H   H123      1.0  0.33292  0.43284  0.37963  1.0000
  H   H124      1.0  0.33034  0.56322  0.39333  1.0000
  H   H125      1.0  0.37873  0.50342  0.38745  1.0000
  H   H126      1.0  0.40975  0.30865  0.39448  1.0000
  H   H127      1.0  0.39767  0.37695  0.39171  1.0000
  H   H128      1.0  0.41385  0.69258  0.27978  1.0000
  H   H129      1.0  0.40250  0.62346  0.27381  1.0000
  H   H130      1.0  0.37207  0.41868  0.44019  1.0000
  H   H131      1.0  0.30631  0.48302  0.44474  1.0000
  H   H132      1.0  0.36198  0.59123  0.45763  1.0000
  C   C187      1.0  0.45064  0.07812  0.34494  1.0000
  N   N3        1.0  0.42557  0.04712  0.33492  1.0000
  C   C188      1.0  0.42196  0.08832  0.33634  1.0000
  C   C189      1.0  0.40574  0.10890  0.33185  1.0000
  N   N4        1.0  0.38617  0.04758  0.33569  1.0000
  C   C190      1.0  0.36905  0.03945  0.33390  1.0000
  C   C191      1.0  0.36078  0.07782  0.32794  1.0000
  C   C192      1.0  0.37332  0.10817  0.32659  1.0000
  C   C193      1.0  0.36081  0.00013  0.33698  1.0000
  N   N5        1.0  0.38686  0.95352  0.34007  1.0000
  C   C194      1.0  0.39040  0.91236  0.34342  1.0000
  C   C195      1.0  0.36164  0.92273  0.34498  1.0000
  C   C196      1.0  0.44337  0.96098  0.33770  1.0000
  C   C197      1.0  0.45164  0.00041  0.33844  1.0000
  C   C198      1.0  0.47011  0.00100  0.33906  1.0000
  C   C199      1.0  0.47942  0.98915  0.41604  1.0000
  C   C200      1.0  0.49760  0.98886  0.41581  1.0000
  C   C201      1.0  0.50716  0.00092  0.33927  1.0000
  C   C202      1.0  0.40276  0.82692  0.42784  1.0000
  C   C203      1.0  0.39893  0.78425  0.42892  1.0000
  C   C204      1.0  0.34240  0.99948  0.33572  1.0000
  C   C205      1.0  0.30560  0.99775  0.33323  1.0000
  C   C206      1.0  0.31469  0.00810  0.41216  1.0000
  C   C207      1.0  0.33285  0.00867  0.41365  1.0000
  C   C208      1.0  0.40551  0.15310  0.32713  1.0000
  C   C209      1.0  0.40446  0.17704  0.40600  1.0000
  C   C210      1.0  0.40040  0.21959  0.40172  1.0000
  C   C211      1.0  0.39703  0.23903  0.31874  1.0000
  H   H133      1.0  0.39869  0.23550  0.46027  1.0000
  H   H134      1.0  0.40550  0.16309  0.46725  1.0000
  H   H135      1.0  0.46355  0.08433  0.34988  1.0000
  H   H136      1.0  0.41693  0.02598  0.32766  1.0000
  H   H137      1.0  0.39559  0.97462  0.33647  1.0000
  H   H138      1.0  0.37084  0.13928  0.32283  1.0000
  H   H139      1.0  0.34780  0.08338  0.32483  1.0000
  H   H140      1.0  0.33907  0.01584  0.47202  1.0000
  H   H141      1.0  0.30816  0.01448  0.47001  1.0000
  H   H142      1.0  0.34869  0.91661  0.34649  1.0000
  H   H143      1.0  0.40186  0.84346  0.48610  1.0000
  H   H144      1.0  0.39559  0.77072  0.48839  1.0000
  H   H145      1.0  0.50378  0.97887  0.47224  1.0000
  H   H146      1.0  0.47301  0.98006  0.47260  1.0000
  C   C212      1.0  0.58223  0.92344  0.34454  1.0000
  N   N6        1.0  0.60730  0.95443  0.33476  1.0000
  C   C213      1.0  0.61091  0.91323  0.33614  1.0000
  C   C214      1.0  0.62713  0.89265  0.33180  1.0000
  N   N7        1.0  0.64671  0.95396  0.33564  1.0000
  C   C215      1.0  0.66383  0.96209  0.33387  1.0000
  C   C216      1.0  0.67210  0.92371  0.32800  1.0000
  C   C217      1.0  0.65956  0.89337  0.32668  1.0000
  C   C218      1.0  0.67207  0.00140  0.33690  1.0000
  N   N8        1.0  0.64603  0.04803  0.33999  1.0000
  C   C219      1.0  0.64249  0.08919  0.34339  1.0000
  C   C220      1.0  0.67124  0.07881  0.34488  1.0000
  C   C221      1.0  0.58951  0.04059  0.33772  1.0000
  C   C222      1.0  0.58124  0.00116  0.33840  1.0000
  C   C223      1.0  0.56277  0.00058  0.33902  1.0000
  C   C224      1.0  0.55345  0.01239  0.41605  1.0000
  C   C225      1.0  0.53528  0.01270  0.41581  1.0000
  C   C226      1.0  0.52572  0.00068  0.33926  1.0000
  C   C227      1.0  0.63012  0.17464  0.42784  1.0000
  C   C228      1.0  0.63400  0.21729  0.42889  1.0000
  C   C229      1.0  0.69049  0.00205  0.33567  1.0000
  C   C230      1.0  0.72729  0.00379  0.33325  1.0000
  C   C231      1.0  0.71817  0.99346  0.41218  1.0000
  C   C232      1.0  0.70002  0.99288  0.41362  1.0000
  C   C233      1.0  0.62736  0.84845  0.32708  1.0000
  C   C234      1.0  0.62840  0.82451  0.40596  1.0000
  C   C235      1.0  0.63240  0.78193  0.40169  1.0000
  C   C236      1.0  0.63583  0.76251  0.31875  1.0000
  H   H147      1.0  0.63414  0.76605  0.46026  1.0000
  H   H148      1.0  0.62733  0.83844  0.46721  1.0000
  H   H149      1.0  0.56932  0.91724  0.34945  1.0000
  H   H150      1.0  0.61596  0.97558  0.32798  1.0000
  H   H151      1.0  0.63730  0.02693  0.33639  1.0000
  H   H152      1.0  0.66204  0.86225  0.32296  1.0000
  H   H153      1.0  0.68508  0.91814  0.32491  1.0000
  H   H154      1.0  0.69379  0.98571  0.47198  1.0000
  H   H155      1.0  0.72470  0.98706  0.47003  1.0000
  H   H156      1.0  0.68419  0.08493  0.34638  1.0000
  H   H157      1.0  0.63108  0.15808  0.48604  1.0000
  H   H158      1.0  0.63734  0.23080  0.48835  1.0000
  H   H159      1.0  0.52910  0.02264  0.47230  1.0000
  H   H160      1.0  0.55987  0.02144  0.47262  1.0000
  C   C237      1.0  0.93795  0.60799  0.34239  1.0000
  C   C238      1.0  0.95064  0.57793  0.34490  1.0000
  C   C239      1.0  0.94276  0.53896  0.33951  1.0000
  N   N9        1.0  0.92558  0.54693  0.33515  1.0000
  C   C240      1.0  0.92196  0.58813  0.33649  1.0000
  C   C241      1.0  0.90574  0.60870  0.33212  1.0000
  N   N10       1.0  0.88616  0.54739  0.33593  1.0000
  C   C242      1.0  0.86905  0.53925  0.33407  1.0000
  C   C243      1.0  0.86078  0.57763  0.32812  1.0000
  C   C244      1.0  0.87332  0.60797  0.32686  1.0000
  C   C245      1.0  0.86081  0.49993  0.33713  1.0000
  C   C246      1.0  0.86967  0.46131  0.34079  1.0000
  N   N11       1.0  0.88686  0.45332  0.34035  1.0000
  C   C247      1.0  0.89040  0.41217  0.34383  1.0000
  C   C248      1.0  0.87431  0.39251  0.34672  1.0000
  C   C249      1.0  0.86164  0.42254  0.34547  1.0000
  N   N12       1.0  0.92626  0.45263  0.34102  1.0000
  C   C250      1.0  0.94337  0.46078  0.33806  1.0000
  C   C251      1.0  0.95164  0.50022  0.33877  1.0000
  C   C252      1.0  0.97011  0.50081  0.33933  1.0000
  C   C253      1.0  0.97943  0.48907  0.41638  1.0000
  C   C254      1.0  0.99760  0.48884  0.41616  1.0000
  C   C255      1.0  0.00716  0.50084  0.33955  1.0000
  C   C256      1.0  0.90277  0.32670  0.42828  1.0000
  C   C257      1.0  0.89890  0.28405  0.42932  1.0000
  C   C258      1.0  0.89874  0.26064  0.34933  1.0000
  C   C259      1.0  0.84240  0.49928  0.33584  1.0000
  C   C260      1.0  0.80560  0.49754  0.33327  1.0000
  C   C261      1.0  0.81469  0.50791  0.41221  1.0000
  C   C262      1.0  0.83285  0.50850  0.41373  1.0000
  C   C263      1.0  0.90551  0.65290  0.32740  1.0000
  C   C264      1.0  0.90446  0.67684  0.40627  1.0000
  C   C265      1.0  0.90045  0.71942  0.40201  1.0000
  C   C266      1.0  0.89705  0.73885  0.31904  1.0000
  H   H161      1.0  0.89869  0.73530  0.46057  1.0000
  H   H162      1.0  0.90551  0.66291  0.46754  1.0000
  H   H163      1.0  0.96355  0.58414  0.34979  1.0000
  H   H164      1.0  0.91692  0.52578  0.32838  1.0000
  H   H165      1.0  0.89559  0.47442  0.33627  1.0000
  H   H166      1.0  0.87084  0.63908  0.32308  1.0000
  H   H167      1.0  0.84780  0.58318  0.32496  1.0000
  H   H168      1.0  0.83906  0.51570  0.47209  1.0000
  H   H169      1.0  0.80815  0.51435  0.47001  1.0000
  H   H170      1.0  0.84870  0.41642  0.34711  1.0000
  H   H171      1.0  0.90187  0.34326  0.48652  1.0000
  H   H172      1.0  0.89560  0.27051  0.48881  1.0000
  H   H173      1.0  0.00379  0.47895  0.47265  1.0000
  H   H174      1.0  0.97301  0.48004  0.47299  1.0000
  C   C267      1.0  0.09494  0.39360  0.34334  1.0000
  C   C268      1.0  0.08225  0.42366  0.34595  1.0000
  C   C269      1.0  0.09013  0.46261  0.33987  1.0000
  N   N13       1.0  0.10731  0.45466  0.33530  1.0000
  C   C270      1.0  0.11092  0.41345  0.33682  1.0000
  C   C271      1.0  0.12713  0.39287  0.33202  1.0000
  N   N14       1.0  0.14671  0.45419  0.33589  1.0000
  C   C272      1.0  0.16383  0.46233  0.33392  1.0000
  C   C273      1.0  0.17210  0.42396  0.32764  1.0000
  C   C274      1.0  0.15955  0.39362  0.32628  1.0000
  C   C275      1.0  0.17206  0.50164  0.33720  1.0000
  C   C276      1.0  0.16321  0.54026  0.34102  1.0000
  N   N15       1.0  0.14601  0.54824  0.34048  1.0000
  C   C277      1.0  0.14247  0.58940  0.34402  1.0000
  C   C278      1.0  0.15857  0.60905  0.34705  1.0000
  C   C279      1.0  0.17123  0.57902  0.34589  1.0000
  N   N16       1.0  0.10662  0.54894  0.34106  1.0000
  C   C280      1.0  0.08951  0.54078  0.33789  1.0000
  C   C281      1.0  0.08124  0.50135  0.33876  1.0000
  C   C282      1.0  0.06277  0.50074  0.33935  1.0000
  C   C283      1.0  0.05344  0.51266  0.41626  1.0000
  C   C284      1.0  0.03527  0.51287  0.41602  1.0000
  C   C285      1.0  0.02572  0.50068  0.33956  1.0000
  C   C286      1.0  0.13006  0.67488  0.42829  1.0000
  C   C287      1.0  0.13392  0.71753  0.42935  1.0000
  C   C288      1.0  0.13413  0.74092  0.34934  1.0000
  C   C289      1.0  0.19048  0.50229  0.33591  1.0000
  C   C290      1.0  0.22728  0.50403  0.33335  1.0000
  C   C291      1.0  0.21818  0.49357  0.41224  1.0000
  C   C292      1.0  0.20002  0.49300  0.41376  1.0000
  C   C293      1.0  0.12736  0.34868  0.32734  1.0000
  C   C294      1.0  0.12846  0.32475  0.40621  1.0000
  C   C295      1.0  0.13247  0.28217  0.40197  1.0000
  C   C296      1.0  0.13585  0.26272  0.31900  1.0000
  H   H175      1.0  0.13421  0.26630  0.46055  1.0000
  H   H176      1.0  0.12739  0.33868  0.46746  1.0000
  H   H177      1.0  0.06934  0.41746  0.35111  1.0000
  H   H178      1.0  0.11594  0.47577  0.32717  1.0000
  H   H179      1.0  0.13729  0.52715  0.33635  1.0000
  H   H180      1.0  0.16204  0.36251  0.32234  1.0000
  H   H181      1.0  0.18507  0.41841  0.32438  1.0000
  H   H182      1.0  0.19380  0.48575  0.47210  1.0000
  H   H183      1.0  0.22471  0.48712  0.47004  1.0000
  H   H184      1.0  0.18418  0.58514  0.34748  1.0000
  H   H185      1.0  0.13092  0.65835  0.48659  1.0000
  H   H186      1.0  0.13720  0.73109  0.48886  1.0000
  H   H187      1.0  0.02907  0.52291  0.47241  1.0000
  H   H188      1.0  0.05984  0.52184  0.47277  1.0000
