data_image0
_chemical_formula_structural       C3H2NC2OCH3NC2OCH3C3NH2CNCOCH3CNCOCH3C3H2NC2OCH3NC2OCH3C3NH2CNCOCH3CNCOCH3C4H2C3HC3HNC2ONC2OCH3C5NH2C3NH2CNCOCNCOCH3C4H2C3HC3HNC2ONC2OCH3C5NH2C3NH2CNCOCNCOCH4C2H4CH3C2OCH2NHCNH2C3NH2CH3NC2OCH3C2H4CH3C2OCH2NHCNH2C3NH2CH3NC2OCH2C3HNHC2OCH3C3NHC2OCH3NHC3HNHC2OCH3C3NHC2OCH3NHC3HC3H3C3HC3H3C3HC3H3NC2OCH3NC2OCH3NC2OCH3NC2OCH3NC2OCH3NC2OCH3C3NC3NH4C3NC3NH4C3NC3NH4CNCOCH3CNCOCH3CNCOCH3CNCOCH3CNCOCH3CNCOCH3C3HC3H3C3HC3H3C3HC3H3NC2OCH3NC2OCH3NC2OCH3NC2OCH3NC2OCH3NC2OCH3C3NC3NH4C3NC3NH4C3NC3NH4CNCOCH3CNCOCH3CNCOCH3CNCOCH3CNCOCH3CNCOCH3
_chemical_formula_sum              "C288 H240 N72 O48"
_cell_length_a       46.3101
_cell_length_b       46.3101
_cell_length_c       14.7642
_cell_angle_alpha    90
_cell_angle_beta     90
_cell_angle_gamma    120

_space_group_name_H-M_alt    "P 1"
_space_group_IT_number       1

loop_
  _space_group_symop_operation_xyz
  'x, y, z'

loop_
  _atom_site_type_symbol
  _atom_site_label
  _atom_site_symmetry_multiplicity
  _atom_site_fract_x
  _atom_site_fract_y
  _atom_site_fract_z
  _atom_site_occupancy
  C   C1        1.0  0.03020  0.26703  0.34912  1.0000
  C   C2        1.0  0.08531  0.32108  0.34778  1.0000
  C   C3        1.0  0.04991  0.30274  0.34865  1.0000
  H   H1        1.0  0.03864  0.31678  0.34746  1.0000
  H   H2        1.0  0.15011  0.34335  0.34442  1.0000
  N   N1        1.0  0.11488  0.24863  0.26694  1.0000
  C   C4        1.0  0.14264  0.24621  0.25099  1.0000
  C   C5        1.0  0.16415  0.25059  0.32468  1.0000
  O   O1        1.0  0.15366  0.24979  0.16364  1.0000
  C   C6        1.0  0.14518  0.21846  0.12227  1.0000
  H   H3        1.0  0.15475  0.22337  0.05316  1.0000
  H   H4        1.0  0.11817  0.20190  0.11921  1.0000
  H   H5        1.0  0.15659  0.20602  0.15814  1.0000
  N   N2        1.0  0.15343  0.40255  0.29288  1.0000
  C   C7        1.0  0.12306  0.37517  0.27597  1.0000
  C   C8        1.0  0.10288  0.35666  0.35063  1.0000
  O   O2        1.0  0.11816  0.36126  0.19168  1.0000
  C   C9        1.0  0.09828  0.36965  0.13473  1.0000
  H   H6        1.0  0.09569  0.35787  0.06901  1.0000
  H   H7        1.0  0.11019  0.39657  0.12419  1.0000
  H   H8        1.0  0.07333  0.36033  0.16285  1.0000
  C   C10       1.0  0.04966  0.25076  0.35006  1.0000
  C   C11       1.0  0.08501  0.26752  0.35481  1.0000
  C   C12       1.0  0.10291  0.30312  0.35342  1.0000
  N   N3        1.0  0.13689  0.32002  0.35761  1.0000
  H   H9        1.0  0.14947  0.30977  0.37675  1.0000
  H   H10       1.0  0.03821  0.22545  0.34899  1.0000
  C   C13       1.0  0.10237  0.24932  0.35012  1.0000
  N   N4        1.0  0.15205  0.25213  0.40773  1.0000
  C   C14       1.0  0.12152  0.24878  0.42459  1.0000
  O   O3        1.0  0.11603  0.25614  0.51027  1.0000
  C   C15       1.0  0.09490  0.22684  0.56237  1.0000
  H   H11       1.0  0.09191  0.23477  0.62955  1.0000
  H   H12       1.0  0.10600  0.21097  0.57029  1.0000
  H   H13       1.0  0.07019  0.21245  0.53176  1.0000
  C   C16       1.0  0.16451  0.41720  0.37540  1.0000
  N   N5        1.0  0.11450  0.37094  0.43334  1.0000
  C   C17       1.0  0.14227  0.40120  0.44853  1.0000
  O   O4        1.0  0.15226  0.40980  0.53627  1.0000
  C   C18       1.0  0.14364  0.43341  0.57146  1.0000
  H   H14       1.0  0.15240  0.43899  0.64125  1.0000
  H   H15       1.0  0.11664  0.42321  0.57157  1.0000
  H   H16       1.0  0.15567  0.45673  0.53311  1.0000
  C   C19       1.0  0.03020  0.76703  0.34912  1.0000
  C   C20       1.0  0.08531  0.82108  0.34779  1.0000
  C   C21       1.0  0.04991  0.80274  0.34865  1.0000
  H   H17       1.0  0.03864  0.81678  0.34746  1.0000
  H   H18       1.0  0.15012  0.84335  0.34442  1.0000
  N   N6        1.0  0.11488  0.74863  0.26694  1.0000
  C   C22       1.0  0.14264  0.74621  0.25099  1.0000
  C   C23       1.0  0.16415  0.75059  0.32468  1.0000
  O   O5        1.0  0.15366  0.74979  0.16364  1.0000
  C   C24       1.0  0.14518  0.71846  0.12227  1.0000
  H   H19       1.0  0.15475  0.72337  0.05316  1.0000
  H   H20       1.0  0.11817  0.70191  0.11921  1.0000
  H   H21       1.0  0.15659  0.70602  0.15814  1.0000
  N   N7        1.0  0.15343  0.90255  0.29288  1.0000
  C   C25       1.0  0.12306  0.87517  0.27597  1.0000
  C   C26       1.0  0.10288  0.85666  0.35063  1.0000
  O   O6        1.0  0.11816  0.86126  0.19168  1.0000
  C   C27       1.0  0.09828  0.86965  0.13473  1.0000
  H   H22       1.0  0.09569  0.85786  0.06901  1.0000
  H   H23       1.0  0.11019  0.89657  0.12419  1.0000
  H   H24       1.0  0.07333  0.86033  0.16285  1.0000
  C   C28       1.0  0.04966  0.75076  0.35006  1.0000
  C   C29       1.0  0.08501  0.76752  0.35481  1.0000
  C   C30       1.0  0.10291  0.80312  0.35342  1.0000
  N   N8        1.0  0.13690  0.82002  0.35762  1.0000
  H   H25       1.0  0.14947  0.80977  0.37675  1.0000
  H   H26       1.0  0.03821  0.72545  0.34899  1.0000
  C   C31       1.0  0.10237  0.74932  0.35012  1.0000
  N   N9        1.0  0.15205  0.75213  0.40773  1.0000
  C   C32       1.0  0.12152  0.74878  0.42459  1.0000
  O   O7        1.0  0.11603  0.75614  0.51027  1.0000
  C   C33       1.0  0.09490  0.72684  0.56237  1.0000
  H   H27       1.0  0.09191  0.73477  0.62955  1.0000
  H   H28       1.0  0.10600  0.71097  0.57029  1.0000
  H   H29       1.0  0.07019  0.71245  0.53176  1.0000
  C   C34       1.0  0.16451  0.91720  0.37540  1.0000
  N   N10       1.0  0.11450  0.87093  0.43334  1.0000
  C   C35       1.0  0.14227  0.90120  0.44853  1.0000
  O   O8        1.0  0.15226  0.90980  0.53627  1.0000
  C   C36       1.0  0.14364  0.93341  0.57146  1.0000
  H   H30       1.0  0.15240  0.93899  0.64125  1.0000
  H   H31       1.0  0.11664  0.92321  0.57157  1.0000
  H   H32       1.0  0.15567  0.95673  0.53311  1.0000
  C   C37       1.0  0.27104  0.24890  0.34318  1.0000
  C   C38       1.0  0.25292  0.26712  0.34301  1.0000
  C   C39       1.0  0.19962  0.26803  0.31608  1.0000
  C   C40       1.0  0.21740  0.25108  0.33489  1.0000
  H   H33       1.0  0.20340  0.22575  0.33770  1.0000
  H   H34       1.0  0.18015  0.30895  0.25347  1.0000
  C   C41       1.0  0.27097  0.02619  0.35813  1.0000
  C   C42       1.0  0.25488  0.04575  0.35537  1.0000
  C   C43       1.0  0.27090  0.08037  0.37601  1.0000
  H   H35       1.0  0.23011  0.03458  0.34064  1.0000
  C   C44       1.0  0.25297  0.48988  0.35806  1.0000
  C   C45       1.0  0.25308  0.43572  0.37566  1.0000
  C   C46       1.0  0.26906  0.47034  0.35506  1.0000
  H   H36       1.0  0.21270  0.37321  0.43428  1.0000
  N   N11       1.0  0.27027  0.37597  0.26869  1.0000
  C   C47       1.0  0.27278  0.40652  0.27621  1.0000
  C   C48       1.0  0.27051  0.41780  0.36383  1.0000
  O   O9        1.0  0.26653  0.41933  0.20013  1.0000
  N   N12       1.0  0.25362  0.14003  0.26949  1.0000
  C   C49       1.0  0.25114  0.10948  0.27690  1.0000
  C   C50       1.0  0.25344  0.09829  0.36459  1.0000
  O   O10       1.0  0.25744  0.09670  0.20083  1.0000
  C   C51       1.0  0.22812  0.07732  0.14699  1.0000
  H   H37       1.0  0.23519  0.06792  0.08837  1.0000
  H   H38       1.0  0.21767  0.09245  0.12245  1.0000
  H   H39       1.0  0.20910  0.05595  0.18481  1.0000
  C   C52       1.0  0.27121  0.19462  0.32957  1.0000
  C   C53       1.0  0.25505  0.21328  0.34758  1.0000
  C   C54       1.0  0.26891  0.30274  0.34695  1.0000
  C   C55       1.0  0.25273  0.32138  0.32886  1.0000
  C   C56       1.0  0.21792  0.30358  0.30731  1.0000
  N   N13       1.0  0.20153  0.32012  0.28304  1.0000
  H   H40       1.0  0.21121  0.34394  0.28615  1.0000
  H   H41       1.0  0.23025  0.19971  0.36209  1.0000
  C   C57       1.0  0.21745  0.47029  0.36526  1.0000
  C   C58       1.0  0.19987  0.43576  0.38655  1.0000
  C   C59       1.0  0.21846  0.41897  0.39920  1.0000
  N   N14       1.0  0.20247  0.38683  0.43016  1.0000
  H   H42       1.0  0.18138  0.37755  0.46120  1.0000
  H   H43       1.0  0.20329  0.48139  0.36001  1.0000
  C   C60       1.0  0.27048  0.35682  0.33875  1.0000
  N   N15       1.0  0.27178  0.39914  0.43368  1.0000
  C   C61       1.0  0.27438  0.37114  0.42592  1.0000
  O   O11       1.0  0.26956  0.35285  0.50284  1.0000
  C   C62       1.0  0.25345  0.15919  0.33959  1.0000
  N   N16       1.0  0.25219  0.11688  0.43460  1.0000
  C   C63       1.0  0.24959  0.14488  0.42678  1.0000
  O   O12       1.0  0.25441  0.16320  0.50365  1.0000
  C   C64       1.0  0.22412  0.15254  0.55361  1.0000
  H   H44       1.0  0.23003  0.16845  0.61315  1.0000
  H   H45       1.0  0.21344  0.12676  0.57666  1.0000
  H   H46       1.0  0.20569  0.15508  0.51341  1.0000
  C   C65       1.0  0.27104  0.74890  0.34318  1.0000
  C   C66       1.0  0.25292  0.76712  0.34301  1.0000
  C   C67       1.0  0.19962  0.76803  0.31608  1.0000
  C   C68       1.0  0.21741  0.75108  0.33489  1.0000
  H   H47       1.0  0.20340  0.72575  0.33770  1.0000
  H   H48       1.0  0.18016  0.80895  0.25347  1.0000
  C   C69       1.0  0.27097  0.52619  0.35813  1.0000
  C   C70       1.0  0.25489  0.54575  0.35537  1.0000
  C   C71       1.0  0.27090  0.58037  0.37601  1.0000
  H   H49       1.0  0.23011  0.53458  0.34064  1.0000
  C   C72       1.0  0.25297  0.98988  0.35806  1.0000
  C   C73       1.0  0.25308  0.93572  0.37566  1.0000
  C   C74       1.0  0.26906  0.97034  0.35506  1.0000
  H   H50       1.0  0.21270  0.87321  0.43428  1.0000
  N   N17       1.0  0.27027  0.87596  0.26869  1.0000
  C   C75       1.0  0.27278  0.90652  0.27621  1.0000
  C   C76       1.0  0.27051  0.91780  0.36383  1.0000
  O   O13       1.0  0.26653  0.91933  0.20013  1.0000
  N   N18       1.0  0.25363  0.64003  0.26949  1.0000
  C   C77       1.0  0.25114  0.60948  0.27689  1.0000
  C   C78       1.0  0.25344  0.59829  0.36459  1.0000
  O   O14       1.0  0.25744  0.59670  0.20083  1.0000
  C   C79       1.0  0.22812  0.57732  0.14699  1.0000
  H   H51       1.0  0.23519  0.56792  0.08837  1.0000
  H   H52       1.0  0.21767  0.59245  0.12245  1.0000
  H   H53       1.0  0.20910  0.55595  0.18481  1.0000
  C   C80       1.0  0.27121  0.69462  0.32957  1.0000
  C   C81       1.0  0.25505  0.71328  0.34758  1.0000
  C   C82       1.0  0.26891  0.80274  0.34695  1.0000
  C   C83       1.0  0.25273  0.82138  0.32886  1.0000
  C   C84       1.0  0.21792  0.80358  0.30731  1.0000
  N   N19       1.0  0.20153  0.82012  0.28304  1.0000
  H   H54       1.0  0.21121  0.84394  0.28615  1.0000
  H   H55       1.0  0.23026  0.69972  0.36209  1.0000
  C   C85       1.0  0.21745  0.97030  0.36525  1.0000
  C   C86       1.0  0.19987  0.93576  0.38655  1.0000
  C   C87       1.0  0.21846  0.91897  0.39920  1.0000
  N   N20       1.0  0.20247  0.88683  0.43016  1.0000
  H   H56       1.0  0.18139  0.87755  0.46120  1.0000
  H   H57       1.0  0.20329  0.98139  0.36001  1.0000
  C   C88       1.0  0.27048  0.85682  0.33875  1.0000
  N   N21       1.0  0.27179  0.89914  0.43368  1.0000
  C   C89       1.0  0.27438  0.87114  0.42592  1.0000
  O   O15       1.0  0.26956  0.85285  0.50284  1.0000
  C   C90       1.0  0.25345  0.65919  0.33959  1.0000
  N   N22       1.0  0.25219  0.61688  0.43460  1.0000
  C   C91       1.0  0.24959  0.64488  0.42678  1.0000
  O   O16       1.0  0.25441  0.66320  0.50365  1.0000
  C   C92       1.0  0.22412  0.65255  0.55361  1.0000
  H   H58       1.0  0.23003  0.66845  0.61315  1.0000
  H   H59       1.0  0.21344  0.62676  0.57666  1.0000
  H   H60       1.0  0.20569  0.65508  0.51341  1.0000
  H   H61       1.0  0.37389  0.17257  0.34272  1.0000
  C   C93       1.0  0.30655  0.26493  0.33498  1.0000
  C   C94       1.0  0.32432  0.24796  0.31640  1.0000
  H   H62       1.0  0.32056  0.29026  0.33758  1.0000
  H   H63       1.0  0.34358  0.20703  0.25289  1.0000
  H   H64       1.0  0.29382  0.48150  0.34009  1.0000
  H   H65       1.0  0.31133  0.14293  0.43398  1.0000
  C   C95       1.0  0.29604  0.43935  0.14755  1.0000
  H   H66       1.0  0.28900  0.44873  0.08880  1.0000
  H   H67       1.0  0.30706  0.42472  0.12322  1.0000
  H   H68       1.0  0.31458  0.46075  0.18626  1.0000
  C   C96       1.0  0.38122  0.26979  0.25080  1.0000
  C   C97       1.0  0.35980  0.26536  0.32477  1.0000
  O   O17       1.0  0.37012  0.26626  0.16355  1.0000
  C   C98       1.0  0.37773  0.29750  0.12315  1.0000
  H   H69       1.0  0.36819  0.29262  0.05401  1.0000
  H   H70       1.0  0.36572  0.30922  0.15961  1.0000
  N   N23       1.0  0.37054  0.11321  0.29282  1.0000
  H   H71       1.0  0.37452  0.20612  0.37528  1.0000
  C   C99       1.0  0.30600  0.21240  0.30776  1.0000
  N   N24       1.0  0.32235  0.19585  0.28326  1.0000
  H   H72       1.0  0.31267  0.17203  0.28610  1.0000
  H   H73       1.0  0.29371  0.31633  0.36131  1.0000
  C   C100      1.0  0.30555  0.09713  0.39925  1.0000
  C   C101      1.0  0.32409  0.08030  0.38653  1.0000
  C   C102      1.0  0.30649  0.04576  0.36536  1.0000
  N   N25       1.0  0.32157  0.12934  0.42976  1.0000
  H   H74       1.0  0.34273  0.13870  0.46045  1.0000
  H   H75       1.0  0.32063  0.03465  0.35992  1.0000
  C   C103      1.0  0.29999  0.36298  0.55161  1.0000
  H   H76       1.0  0.29407  0.34716  0.61131  1.0000
  H   H77       1.0  0.31129  0.38886  0.57432  1.0000
  H   H78       1.0  0.31791  0.35987  0.51066  1.0000
  N   N26       1.0  0.37198  0.26373  0.40764  1.0000
  C   C104      1.0  0.35946  0.09878  0.37558  1.0000
  C   C105      1.0  0.38177  0.11506  0.44837  1.0000
  O   O18       1.0  0.37185  0.10676  0.53626  1.0000
  C   C106      1.0  0.38044  0.08321  0.57218  1.0000
  H   H79       1.0  0.37170  0.07785  0.64202  1.0000
  H   H80       1.0  0.36835  0.05978  0.53433  1.0000
  H   H81       1.0  0.37389  0.67257  0.34272  1.0000
  C   C107      1.0  0.30655  0.76494  0.33498  1.0000
  C   C108      1.0  0.32432  0.74796  0.31640  1.0000
  H   H82       1.0  0.32056  0.79026  0.33758  1.0000
  H   H83       1.0  0.34358  0.70703  0.25289  1.0000
  H   H84       1.0  0.29382  0.98151  0.34009  1.0000
  H   H85       1.0  0.31133  0.64293  0.43398  1.0000
  C   C109      1.0  0.29604  0.93936  0.14755  1.0000
  H   H86       1.0  0.28900  0.94873  0.08880  1.0000
  H   H87       1.0  0.30706  0.92472  0.12322  1.0000
  H   H88       1.0  0.31458  0.96075  0.18626  1.0000
  C   C110      1.0  0.38123  0.76979  0.25080  1.0000
  C   C111      1.0  0.35980  0.76536  0.32477  1.0000
  O   O19       1.0  0.37012  0.76626  0.16355  1.0000
  C   C112      1.0  0.37773  0.79750  0.12315  1.0000
  H   H89       1.0  0.36820  0.79262  0.05401  1.0000
  H   H90       1.0  0.36572  0.80923  0.15961  1.0000
  N   N27       1.0  0.37054  0.61321  0.29282  1.0000
  H   H91       1.0  0.37452  0.70612  0.37527  1.0000
  C   C113      1.0  0.30600  0.71240  0.30775  1.0000
  N   N28       1.0  0.32235  0.69585  0.28326  1.0000
  H   H92       1.0  0.31267  0.67203  0.28610  1.0000
  H   H93       1.0  0.29371  0.81633  0.36131  1.0000
  C   C114      1.0  0.30555  0.59713  0.39925  1.0000
  C   C115      1.0  0.32409  0.58030  0.38653  1.0000
  C   C116      1.0  0.30649  0.54576  0.36536  1.0000
  N   N29       1.0  0.32157  0.62934  0.42976  1.0000
  H   H94       1.0  0.34273  0.63870  0.46045  1.0000
  H   H95       1.0  0.32064  0.53465  0.35992  1.0000
  C   C117      1.0  0.29999  0.86298  0.55161  1.0000
  H   H96       1.0  0.29407  0.84716  0.61131  1.0000
  H   H97       1.0  0.31129  0.88886  0.57432  1.0000
  H   H98       1.0  0.31791  0.85987  0.51066  1.0000
  N   N30       1.0  0.37198  0.76373  0.40764  1.0000
  C   C118      1.0  0.35946  0.59877  0.37558  1.0000
  C   C119      1.0  0.38177  0.61506  0.44837  1.0000
  O   O20       1.0  0.37185  0.60676  0.53626  1.0000
  C   C120      1.0  0.38044  0.58321  0.57218  1.0000
  H   H99       1.0  0.37170  0.57786  0.64202  1.0000
  H   H100      1.0  0.36836  0.55978  0.53433  1.0000
  C   C121      1.0  0.49380  0.24897  0.34893  1.0000
  C   C122      1.0  0.47411  0.21325  0.34825  1.0000
  C   C123      1.0  0.43871  0.19490  0.34697  1.0000
  H   H101      1.0  0.48538  0.19923  0.34728  1.0000
  N   N31       1.0  0.40901  0.26736  0.26625  1.0000
  H   H102      1.0  0.40463  0.31467  0.12031  1.0000
  C   C124      1.0  0.40090  0.14054  0.27543  1.0000
  C   C125      1.0  0.42119  0.15933  0.34957  1.0000
  O   O21       1.0  0.40574  0.15421  0.19087  1.0000
  C   C126      1.0  0.42545  0.14553  0.13413  1.0000
  H   H103      1.0  0.42797  0.15712  0.06812  1.0000
  H   H104      1.0  0.41343  0.11857  0.12423  1.0000
  H   H105      1.0  0.45043  0.15485  0.16203  1.0000
  C   C127      1.0  0.42108  0.21283  0.35218  1.0000
  C   C128      1.0  0.43895  0.24842  0.35392  1.0000
  C   C129      1.0  0.47432  0.26522  0.34973  1.0000
  N   N32       1.0  0.38709  0.19591  0.35587  1.0000
  H   H106      1.0  0.48577  0.29053  0.34893  1.0000
  C   C130      1.0  0.42156  0.26660  0.34927  1.0000
  C   C131      1.0  0.40254  0.26707  0.42414  1.0000
  O   O22       1.0  0.40810  0.25964  0.50966  1.0000
  C   C132      1.0  0.42982  0.28885  0.56130  1.0000
  H   H107      1.0  0.43284  0.28085  0.62835  1.0000
  H   H108      1.0  0.41923  0.30515  0.56960  1.0000
  H   H109      1.0  0.45447  0.30281  0.53007  1.0000
  N   N33       1.0  0.40953  0.14527  0.43255  1.0000
  H   H110      1.0  0.40743  0.09337  0.57226  1.0000
  C   C133      1.0  0.49380  0.74897  0.34893  1.0000
  C   C134      1.0  0.47411  0.71325  0.34825  1.0000
  C   C135      1.0  0.43871  0.69490  0.34697  1.0000
  H   H111      1.0  0.48538  0.69922  0.34728  1.0000
  N   N34       1.0  0.40901  0.76736  0.26625  1.0000
  H   H112      1.0  0.40463  0.81467  0.12031  1.0000
  C   C136      1.0  0.40090  0.64054  0.27543  1.0000
  C   C137      1.0  0.42119  0.65933  0.34957  1.0000
  O   O23       1.0  0.40574  0.65421  0.19087  1.0000
  C   C138      1.0  0.42545  0.64553  0.13413  1.0000
  H   H113      1.0  0.42797  0.65712  0.06812  1.0000
  H   H114      1.0  0.41343  0.61857  0.12423  1.0000
  H   H115      1.0  0.45043  0.65485  0.16203  1.0000
  C   C139      1.0  0.42109  0.71283  0.35218  1.0000
  C   C140      1.0  0.43895  0.74843  0.35392  1.0000
  C   C141      1.0  0.47432  0.76522  0.34973  1.0000
  N   N35       1.0  0.38709  0.69591  0.35586  1.0000
  H   H116      1.0  0.48577  0.79054  0.34893  1.0000
  C   C142      1.0  0.42156  0.76661  0.34927  1.0000
  C   C143      1.0  0.40254  0.76707  0.42414  1.0000
  O   O24       1.0  0.40810  0.75964  0.50966  1.0000
  C   C144      1.0  0.42982  0.78885  0.56130  1.0000
  H   H117      1.0  0.43283  0.78085  0.62835  1.0000
  H   H118      1.0  0.41923  0.80514  0.56960  1.0000
  H   H119      1.0  0.45447  0.80281  0.53007  1.0000
  N   N36       1.0  0.40953  0.64527  0.43255  1.0000
  H   H120      1.0  0.40743  0.59337  0.57226  1.0000
  C   C145      1.0  0.99380  0.24897  0.34893  1.0000
  C   C146      1.0  0.97411  0.21325  0.34825  1.0000
  C   C147      1.0  0.93871  0.19490  0.34697  1.0000
  H   H121      1.0  0.98538  0.19923  0.34728  1.0000
  C   C148      1.0  0.53020  0.26703  0.34912  1.0000
  C   C149      1.0  0.58531  0.32108  0.34778  1.0000
  C   C150      1.0  0.54991  0.30274  0.34865  1.0000
  H   H122      1.0  0.53864  0.31678  0.34746  1.0000
  H   H123      1.0  0.65011  0.34335  0.34442  1.0000
  H   H124      1.0  0.87389  0.17257  0.34272  1.0000
  C   C151      1.0  0.77104  0.24890  0.34318  1.0000
  C   C152      1.0  0.80655  0.26493  0.33498  1.0000
  C   C153      1.0  0.82432  0.24796  0.31640  1.0000
  H   H125      1.0  0.82056  0.29026  0.33758  1.0000
  C   C154      1.0  0.75292  0.26712  0.34301  1.0000
  C   C155      1.0  0.69962  0.26803  0.31608  1.0000
  C   C156      1.0  0.71740  0.25108  0.33489  1.0000
  H   H126      1.0  0.70340  0.22575  0.33770  1.0000
  H   H127      1.0  0.68015  0.30895  0.25347  1.0000
  H   H128      1.0  0.84358  0.20703  0.25289  1.0000
  C   C157      1.0  0.77097  0.02619  0.35813  1.0000
  C   C158      1.0  0.75489  0.04575  0.35537  1.0000
  C   C159      1.0  0.77089  0.08037  0.37601  1.0000
  H   H129      1.0  0.73011  0.03458  0.34064  1.0000
  C   C160      1.0  0.75297  0.48988  0.35806  1.0000
  C   C161      1.0  0.75308  0.43572  0.37566  1.0000
  C   C162      1.0  0.76906  0.47034  0.35506  1.0000
  H   H130      1.0  0.79382  0.48150  0.34009  1.0000
  H   H131      1.0  0.71270  0.37321  0.43428  1.0000
  H   H132      1.0  0.81133  0.14293  0.43398  1.0000
  N   N37       1.0  0.61488  0.24863  0.26694  1.0000
  C   C163      1.0  0.64264  0.24621  0.25099  1.0000
  C   C164      1.0  0.66415  0.25059  0.32468  1.0000
  O   O25       1.0  0.65366  0.24979  0.16364  1.0000
  C   C165      1.0  0.64518  0.21846  0.12227  1.0000
  H   H133      1.0  0.65475  0.22337  0.05316  1.0000
  H   H134      1.0  0.61817  0.20190  0.11921  1.0000
  H   H135      1.0  0.65659  0.20602  0.15814  1.0000
  N   N38       1.0  0.77027  0.37597  0.26869  1.0000
  C   C166      1.0  0.77278  0.40652  0.27621  1.0000
  C   C167      1.0  0.77051  0.41780  0.36383  1.0000
  O   O26       1.0  0.76653  0.41933  0.20013  1.0000
  C   C168      1.0  0.79604  0.43935  0.14755  1.0000
  H   H136      1.0  0.78900  0.44873  0.08880  1.0000
  H   H137      1.0  0.80706  0.42472  0.12322  1.0000
  H   H138      1.0  0.81458  0.46075  0.18626  1.0000
  N   N39       1.0  0.65343  0.40255  0.29288  1.0000
  C   C169      1.0  0.62306  0.37517  0.27597  1.0000
  C   C170      1.0  0.60288  0.35666  0.35063  1.0000
  O   O27       1.0  0.61816  0.36126  0.19168  1.0000
  C   C171      1.0  0.59828  0.36965  0.13473  1.0000
  H   H139      1.0  0.59569  0.35787  0.06901  1.0000
  H   H140      1.0  0.61019  0.39657  0.12419  1.0000
  H   H141      1.0  0.57332  0.36033  0.16285  1.0000
  N   N40       1.0  0.90901  0.26736  0.26625  1.0000
  C   C172      1.0  0.88123  0.26979  0.25080  1.0000
  C   C173      1.0  0.85980  0.26536  0.32477  1.0000
  O   O28       1.0  0.87012  0.26626  0.16355  1.0000
  C   C174      1.0  0.87773  0.29750  0.12315  1.0000
  H   H142      1.0  0.86820  0.29262  0.05401  1.0000
  H   H143      1.0  0.90463  0.31467  0.12031  1.0000
  H   H144      1.0  0.86572  0.30922  0.15961  1.0000
  N   N41       1.0  0.75362  0.14003  0.26949  1.0000
  C   C175      1.0  0.75114  0.10948  0.27690  1.0000
  C   C176      1.0  0.75344  0.09829  0.36459  1.0000
  O   O29       1.0  0.75744  0.09670  0.20083  1.0000
  C   C177      1.0  0.72812  0.07732  0.14699  1.0000
  H   H145      1.0  0.73519  0.06792  0.08837  1.0000
  H   H146      1.0  0.71767  0.09245  0.12245  1.0000
  H   H147      1.0  0.70910  0.05595  0.18481  1.0000
  N   N42       1.0  0.87054  0.11321  0.29282  1.0000
  C   C178      1.0  0.90090  0.14054  0.27543  1.0000
  C   C179      1.0  0.92119  0.15933  0.34957  1.0000
  O   O30       1.0  0.90574  0.15421  0.19087  1.0000
  C   C180      1.0  0.92545  0.14553  0.13413  1.0000
  H   H148      1.0  0.92797  0.15712  0.06812  1.0000
  H   H149      1.0  0.91343  0.11857  0.12423  1.0000
  H   H150      1.0  0.95043  0.15485  0.16203  1.0000
  C   C181      1.0  0.92109  0.21283  0.35218  1.0000
  C   C182      1.0  0.93895  0.24842  0.35392  1.0000
  C   C183      1.0  0.97432  0.26522  0.34973  1.0000
  N   N43       1.0  0.88709  0.19591  0.35587  1.0000
  C   C184      1.0  0.54966  0.25076  0.35006  1.0000
  C   C185      1.0  0.58501  0.26752  0.35481  1.0000
  C   C186      1.0  0.60291  0.30312  0.35342  1.0000
  N   N44       1.0  0.63690  0.32002  0.35761  1.0000
  H   H151      1.0  0.64947  0.30977  0.37675  1.0000
  H   H152      1.0  0.87452  0.20612  0.37528  1.0000
  H   H153      1.0  0.98576  0.29053  0.34893  1.0000
  H   H154      1.0  0.53821  0.22545  0.34899  1.0000
  C   C187      1.0  0.80600  0.21240  0.30776  1.0000
  C   C188      1.0  0.77121  0.19462  0.32957  1.0000
  C   C189      1.0  0.75505  0.21328  0.34758  1.0000
  N   N45       1.0  0.82235  0.19585  0.28326  1.0000
  C   C190      1.0  0.76891  0.30274  0.34695  1.0000
  C   C191      1.0  0.75273  0.32138  0.32886  1.0000
  C   C192      1.0  0.71792  0.30358  0.30731  1.0000
  N   N46       1.0  0.70153  0.32012  0.28304  1.0000
  H   H155      1.0  0.71121  0.34394  0.28615  1.0000
  H   H156      1.0  0.81267  0.17203  0.28610  1.0000
  H   H157      1.0  0.73026  0.19971  0.36209  1.0000
  H   H158      1.0  0.79371  0.31633  0.36131  1.0000
  C   C193      1.0  0.80555  0.09713  0.39925  1.0000
  C   C194      1.0  0.82409  0.08030  0.38653  1.0000
  C   C195      1.0  0.80649  0.04576  0.36536  1.0000
  N   N47       1.0  0.82157  0.12934  0.42976  1.0000
  C   C196      1.0  0.71745  0.47029  0.36526  1.0000
  C   C197      1.0  0.69987  0.43576  0.38655  1.0000
  C   C198      1.0  0.71846  0.41897  0.39920  1.0000
  N   N48       1.0  0.70247  0.38683  0.43016  1.0000
  H   H159      1.0  0.68139  0.37755  0.46120  1.0000
  H   H160      1.0  0.84273  0.13870  0.46045  1.0000
  H   H161      1.0  0.82064  0.03465  0.35992  1.0000
  H   H162      1.0  0.70329  0.48139  0.36001  1.0000
  C   C199      1.0  0.60237  0.24932  0.35012  1.0000
  N   N49       1.0  0.65205  0.25213  0.40773  1.0000
  C   C200      1.0  0.62152  0.24878  0.42459  1.0000
  O   O31       1.0  0.61603  0.25614  0.51027  1.0000
  C   C201      1.0  0.59490  0.22684  0.56237  1.0000
  H   H163      1.0  0.59191  0.23477  0.62955  1.0000
  H   H164      1.0  0.60600  0.21097  0.57029  1.0000
  H   H165      1.0  0.57019  0.21245  0.53176  1.0000
  C   C202      1.0  0.77048  0.35682  0.33875  1.0000
  N   N50       1.0  0.77179  0.39914  0.43368  1.0000
  C   C203      1.0  0.77438  0.37114  0.42592  1.0000
  O   O32       1.0  0.76956  0.35285  0.50284  1.0000
  C   C204      1.0  0.79999  0.36298  0.55161  1.0000
  H   H166      1.0  0.79407  0.34716  0.61131  1.0000
  H   H167      1.0  0.81129  0.38886  0.57432  1.0000
  H   H168      1.0  0.81791  0.35987  0.51066  1.0000
  C   C205      1.0  0.66451  0.41720  0.37540  1.0000
  N   N51       1.0  0.61450  0.37094  0.43334  1.0000
  C   C206      1.0  0.64227  0.40120  0.44853  1.0000
  O   O33       1.0  0.65226  0.40980  0.53627  1.0000
  C   C207      1.0  0.64364  0.43341  0.57146  1.0000
  H   H169      1.0  0.65240  0.43899  0.64125  1.0000
  H   H170      1.0  0.61664  0.42321  0.57157  1.0000
  H   H171      1.0  0.65567  0.45673  0.53311  1.0000
  C   C208      1.0  0.92156  0.26660  0.34927  1.0000
  N   N52       1.0  0.87198  0.26373  0.40764  1.0000
  C   C209      1.0  0.90254  0.26707  0.42414  1.0000
  O   O34       1.0  0.90810  0.25964  0.50966  1.0000
  C   C210      1.0  0.92982  0.28885  0.56130  1.0000
  H   H172      1.0  0.93283  0.28085  0.62835  1.0000
  H   H173      1.0  0.91923  0.30515  0.56960  1.0000
  H   H174      1.0  0.95447  0.30281  0.53007  1.0000
  C   C211      1.0  0.75345  0.15919  0.33959  1.0000
  N   N53       1.0  0.75219  0.11688  0.43460  1.0000
  C   C212      1.0  0.74959  0.14488  0.42678  1.0000
  O   O35       1.0  0.75441  0.16320  0.50365  1.0000
  C   C213      1.0  0.72412  0.15254  0.55361  1.0000
  H   H175      1.0  0.73003  0.16845  0.61315  1.0000
  H   H176      1.0  0.71344  0.12676  0.57666  1.0000
  H   H177      1.0  0.70569  0.15508  0.51341  1.0000
  C   C214      1.0  0.85946  0.09878  0.37558  1.0000
  N   N54       1.0  0.90953  0.14527  0.43255  1.0000
  C   C215      1.0  0.88177  0.11506  0.44837  1.0000
  O   O36       1.0  0.87185  0.10676  0.53626  1.0000
  C   C216      1.0  0.88044  0.08321  0.57218  1.0000
  H   H178      1.0  0.87170  0.07785  0.64202  1.0000
  H   H179      1.0  0.90743  0.09337  0.57226  1.0000
  H   H180      1.0  0.86836  0.05978  0.53433  1.0000
  C   C217      1.0  0.99380  0.74897  0.34893  1.0000
  C   C218      1.0  0.97411  0.71325  0.34825  1.0000
  C   C219      1.0  0.93871  0.69490  0.34697  1.0000
  H   H181      1.0  0.98538  0.69922  0.34728  1.0000
  C   C220      1.0  0.53020  0.76703  0.34912  1.0000
  C   C221      1.0  0.58531  0.82108  0.34779  1.0000
  C   C222      1.0  0.54991  0.80274  0.34865  1.0000
  H   H182      1.0  0.53864  0.81678  0.34746  1.0000
  H   H183      1.0  0.65012  0.84335  0.34442  1.0000
  H   H184      1.0  0.87389  0.67257  0.34272  1.0000
  C   C223      1.0  0.77104  0.74890  0.34318  1.0000
  C   C224      1.0  0.80655  0.76494  0.33498  1.0000
  C   C225      1.0  0.82432  0.74796  0.31640  1.0000
  H   H185      1.0  0.82056  0.79026  0.33758  1.0000
  C   C226      1.0  0.75292  0.76712  0.34301  1.0000
  C   C227      1.0  0.69962  0.76803  0.31608  1.0000
  C   C228      1.0  0.71741  0.75108  0.33489  1.0000
  H   H186      1.0  0.70340  0.72575  0.33770  1.0000
  H   H187      1.0  0.68015  0.80895  0.25347  1.0000
  H   H188      1.0  0.84358  0.70703  0.25289  1.0000
  C   C229      1.0  0.77097  0.52619  0.35813  1.0000
  C   C230      1.0  0.75489  0.54575  0.35537  1.0000
  C   C231      1.0  0.77090  0.58037  0.37601  1.0000
  H   H189      1.0  0.73011  0.53458  0.34064  1.0000
  C   C232      1.0  0.75297  0.98988  0.35806  1.0000
  C   C233      1.0  0.75308  0.93572  0.37566  1.0000
  C   C234      1.0  0.76906  0.97034  0.35506  1.0000
  H   H190      1.0  0.79382  0.98151  0.34009  1.0000
  H   H191      1.0  0.71270  0.87321  0.43428  1.0000
  H   H192      1.0  0.81133  0.64293  0.43398  1.0000
  N   N55       1.0  0.61488  0.74863  0.26694  1.0000
  C   C235      1.0  0.64264  0.74621  0.25099  1.0000
  C   C236      1.0  0.66415  0.75059  0.32468  1.0000
  O   O37       1.0  0.65366  0.74979  0.16364  1.0000
  C   C237      1.0  0.64518  0.71846  0.12227  1.0000
  H   H193      1.0  0.65475  0.72337  0.05316  1.0000
  H   H194      1.0  0.61817  0.70191  0.11921  1.0000
  H   H195      1.0  0.65659  0.70602  0.15814  1.0000
  N   N56       1.0  0.77027  0.87596  0.26869  1.0000
  C   C238      1.0  0.77278  0.90652  0.27621  1.0000
  C   C239      1.0  0.77051  0.91780  0.36383  1.0000
  O   O38       1.0  0.76653  0.91933  0.20013  1.0000
  C   C240      1.0  0.79604  0.93936  0.14755  1.0000
  H   H196      1.0  0.78900  0.94873  0.08880  1.0000
  H   H197      1.0  0.80706  0.92472  0.12322  1.0000
  H   H198      1.0  0.81459  0.96075  0.18626  1.0000
  N   N57       1.0  0.65343  0.90255  0.29288  1.0000
  C   C241      1.0  0.62306  0.87517  0.27597  1.0000
  C   C242      1.0  0.60288  0.85666  0.35063  1.0000
  O   O39       1.0  0.61816  0.86126  0.19168  1.0000
  C   C243      1.0  0.59828  0.86965  0.13473  1.0000
  H   H199      1.0  0.59569  0.85786  0.06901  1.0000
  H   H200      1.0  0.61019  0.89657  0.12419  1.0000
  H   H201      1.0  0.57333  0.86033  0.16285  1.0000
  N   N58       1.0  0.90901  0.76736  0.26625  1.0000
  C   C244      1.0  0.88122  0.76979  0.25080  1.0000
  C   C245      1.0  0.85980  0.76536  0.32477  1.0000
  O   O40       1.0  0.87012  0.76626  0.16355  1.0000
  C   C246      1.0  0.87773  0.79750  0.12315  1.0000
  H   H202      1.0  0.86820  0.79262  0.05401  1.0000
  H   H203      1.0  0.90463  0.81467  0.12031  1.0000
  H   H204      1.0  0.86572  0.80923  0.15961  1.0000
  N   N59       1.0  0.75363  0.64003  0.26949  1.0000
  C   C247      1.0  0.75114  0.60948  0.27689  1.0000
  C   C248      1.0  0.75344  0.59829  0.36459  1.0000
  O   O41       1.0  0.75744  0.59670  0.20083  1.0000
  C   C249      1.0  0.72812  0.57732  0.14699  1.0000
  H   H205      1.0  0.73519  0.56792  0.08837  1.0000
  H   H206      1.0  0.71767  0.59245  0.12245  1.0000
  H   H207      1.0  0.70910  0.55595  0.18481  1.0000
  N   N60       1.0  0.87054  0.61321  0.29282  1.0000
  C   C250      1.0  0.90090  0.64054  0.27543  1.0000
  C   C251      1.0  0.92119  0.65933  0.34957  1.0000
  O   O42       1.0  0.90574  0.65421  0.19087  1.0000
  C   C252      1.0  0.92545  0.64553  0.13413  1.0000
  H   H208      1.0  0.92797  0.65712  0.06812  1.0000
  H   H209      1.0  0.91343  0.61857  0.12423  1.0000
  H   H210      1.0  0.95043  0.65485  0.16203  1.0000
  C   C253      1.0  0.92109  0.71283  0.35218  1.0000
  C   C254      1.0  0.93895  0.74843  0.35392  1.0000
  C   C255      1.0  0.97432  0.76522  0.34973  1.0000
  N   N61       1.0  0.88709  0.69591  0.35586  1.0000
  C   C256      1.0  0.54966  0.75076  0.35006  1.0000
  C   C257      1.0  0.58501  0.76752  0.35481  1.0000
  C   C258      1.0  0.60291  0.80312  0.35342  1.0000
  N   N62       1.0  0.63690  0.82002  0.35762  1.0000
  H   H211      1.0  0.64947  0.80977  0.37675  1.0000
  H   H212      1.0  0.87452  0.70612  0.37527  1.0000
  H   H213      1.0  0.98577  0.79054  0.34893  1.0000
  H   H214      1.0  0.53821  0.72545  0.34899  1.0000
  C   C259      1.0  0.80600  0.71240  0.30775  1.0000
  C   C260      1.0  0.77121  0.69462  0.32957  1.0000
  C   C261      1.0  0.75505  0.71328  0.34758  1.0000
  N   N63       1.0  0.82235  0.69585  0.28326  1.0000
  C   C262      1.0  0.76891  0.80274  0.34695  1.0000
  C   C263      1.0  0.75273  0.82138  0.32886  1.0000
  C   C264      1.0  0.71792  0.80358  0.30731  1.0000
  N   N64       1.0  0.70154  0.82012  0.28304  1.0000
  H   H215      1.0  0.71121  0.84394  0.28615  1.0000
  H   H216      1.0  0.81267  0.67203  0.28610  1.0000
  H   H217      1.0  0.73025  0.69972  0.36209  1.0000
  H   H218      1.0  0.79371  0.81633  0.36131  1.0000
  C   C265      1.0  0.80555  0.59713  0.39925  1.0000
  C   C266      1.0  0.82409  0.58030  0.38653  1.0000
  C   C267      1.0  0.80649  0.54576  0.36536  1.0000
  N   N65       1.0  0.82157  0.62934  0.42976  1.0000
  C   C268      1.0  0.71745  0.97030  0.36525  1.0000
  C   C269      1.0  0.69988  0.93576  0.38655  1.0000
  C   C270      1.0  0.71846  0.91897  0.39920  1.0000
  N   N66       1.0  0.70247  0.88683  0.43016  1.0000
  H   H219      1.0  0.68138  0.87755  0.46120  1.0000
  H   H220      1.0  0.84273  0.63870  0.46045  1.0000
  H   H221      1.0  0.82064  0.53465  0.35992  1.0000
  H   H222      1.0  0.70329  0.98139  0.36001  1.0000
  C   C271      1.0  0.60237  0.74932  0.35012  1.0000
  N   N67       1.0  0.65205  0.75213  0.40773  1.0000
  C   C272      1.0  0.62152  0.74878  0.42459  1.0000
  O   O43       1.0  0.61603  0.75614  0.51027  1.0000
  C   C273      1.0  0.59490  0.72684  0.56237  1.0000
  H   H223      1.0  0.59191  0.73477  0.62955  1.0000
  H   H224      1.0  0.60600  0.71097  0.57029  1.0000
  H   H225      1.0  0.57019  0.71245  0.53176  1.0000
  C   C274      1.0  0.77048  0.85682  0.33875  1.0000
  N   N68       1.0  0.77179  0.89914  0.43368  1.0000
  C   C275      1.0  0.77438  0.87114  0.42592  1.0000
  O   O44       1.0  0.76956  0.85285  0.50284  1.0000
  C   C276      1.0  0.79998  0.86298  0.55161  1.0000
  H   H226      1.0  0.79407  0.84716  0.61131  1.0000
  H   H227      1.0  0.81129  0.88886  0.57432  1.0000
  H   H228      1.0  0.81791  0.85987  0.51066  1.0000
  C   C277      1.0  0.66451  0.91720  0.37540  1.0000
  N   N69       1.0  0.61450  0.87093  0.43334  1.0000
  C   C278      1.0  0.64227  0.90120  0.44853  1.0000
  O   O45       1.0  0.65226  0.90980  0.53627  1.0000
  C   C279      1.0  0.64364  0.93341  0.57146  1.0000
  H   H229      1.0  0.65240  0.93899  0.64125  1.0000
  H   H230      1.0  0.61664  0.92321  0.57157  1.0000
  H   H231      1.0  0.65567  0.95673  0.53311  1.0000
  C   C280      1.0  0.92156  0.76661  0.34927  1.0000
  N   N70       1.0  0.87198  0.76373  0.40764  1.0000
  C   C281      1.0  0.90254  0.76707  0.42414  1.0000
  O   O46       1.0  0.90810  0.75964  0.50966  1.0000
  C   C282      1.0  0.92982  0.78885  0.56130  1.0000
  H   H232      1.0  0.93283  0.78085  0.62835  1.0000
  H   H233      1.0  0.91923  0.80514  0.56960  1.0000
  H   H234      1.0  0.95447  0.80281  0.53007  1.0000
  C   C283      1.0  0.75345  0.65919  0.33959  1.0000
  N   N71       1.0  0.75219  0.61688  0.43460  1.0000
  C   C284      1.0  0.74959  0.64488  0.42678  1.0000
  O   O47       1.0  0.75441  0.66320  0.50365  1.0000
  C   C285      1.0  0.72412  0.65255  0.55361  1.0000
  H   H235      1.0  0.73003  0.66845  0.61315  1.0000
  H   H236      1.0  0.71344  0.62676  0.57666  1.0000
  H   H237      1.0  0.70569  0.65508  0.51341  1.0000
  C   C286      1.0  0.85946  0.59877  0.37558  1.0000
  N   N72       1.0  0.90953  0.64527  0.43255  1.0000
  C   C287      1.0  0.88177  0.61506  0.44837  1.0000
  O   O48       1.0  0.87185  0.60676  0.53626  1.0000
  C   C288      1.0  0.88044  0.58321  0.57218  1.0000
  H   H238      1.0  0.87170  0.57786  0.64202  1.0000
  H   H239      1.0  0.90743  0.59337  0.57226  1.0000
  H   H240      1.0  0.86835  0.55978  0.53433  1.0000
