data_image0
_chemical_formula_structural       C2HC5H3C2NC3NHCH3C2NC3NHCH3C2NC3NHCH3C2HC5H3C2HC5H3C2HC5H3C2HC5H3C2NC3NHCH3C2NC3NHCH3C2HC5H3C2HC5H3C2NC3NHCH3C2NC3NHCH3C2HC5H3C2HC5H3C2NC3NHCH3C2NC3NHCH3C2HC5H3C2HC5H3C2NC3NHCH3C2NC3NHCH3C2NC3NHCH3C2HC5H3C6H3C6H3C6H3C6H3C6H3C6H3C6H3C6H3C6H3C6H3C6H3C6H3C6H3C6H3C6H3C6H3C2NC3NHCH3C2HC5H3C2HC5H3C2HC5H3C2NC3NHCH3C2NC3NHCH3C2NC3NHCH3C2NC3NHCH3C2HC5H3C2HC5H3C2NC3NHCH3C2NC3NHCH3C2HC5H3C2HC5H3C2NC3NHCH3C2NC3NHCH3C2HC5H3C2HC5H3C2NC3NHCH3C2NC3NHCH3C2HC5H3C2HC5H3C2HC5H3C2NC3NHCH3
_chemical_formula_sum              "C408 H240 N48"
_cell_length_a       81.7064
_cell_length_b       42.1261
_cell_length_c       14.8896
_cell_angle_alpha    90
_cell_angle_beta     90
_cell_angle_gamma    90

_space_group_name_H-M_alt    "P 1"
_space_group_IT_number       1

loop_
  _space_group_symop_operation_xyz
  'x, y, z'

loop_
  _atom_site_type_symbol
  _atom_site_label
  _atom_site_symmetry_multiplicity
  _atom_site_fract_x
  _atom_site_fract_y
  _atom_site_fract_z
  _atom_site_occupancy
  C   C1        1.0  0.49484  0.47451  0.25810  1.0000
  C   C2        1.0  0.48632  0.44533  0.26105  1.0000
  H   H1        1.0  0.48326  0.43424  0.20212  1.0000
  C   C3        1.0  0.52521  0.57660  0.33980  1.0000
  C   C4        1.0  0.52073  0.56218  0.25772  1.0000
  C   C5        1.0  0.51224  0.53290  0.25649  1.0000
  C   C6        1.0  0.50761  0.51815  0.17524  1.0000
  C   C7        1.0  0.49903  0.48920  0.17603  1.0000
  H   H2        1.0  0.51045  0.52835  0.11484  1.0000
  H   H3        1.0  0.49585  0.47898  0.11618  1.0000
  H   H4        1.0  0.52345  0.57337  0.19847  1.0000
  C   C8        1.0  0.02513  0.93080  0.33769  1.0000
  C   C9        1.0  0.02024  0.94636  0.25725  1.0000
  N   N1        1.0  0.01205  0.97446  0.26308  1.0000
  C   C10       1.0  0.00799  0.98916  0.34124  1.0000
  C   C11       1.0  0.99928  0.01825  0.34191  1.0000
  C   C12       1.0  0.98662  0.06096  0.26138  1.0000
  N   N2        1.0  0.99483  0.03292  0.26420  1.0000
  H   H5        1.0  0.98402  0.07079  0.20024  1.0000
  C   C13       1.0  0.02314  0.93419  0.16529  1.0000
  H   H6        1.0  0.02987  0.91186  0.16434  1.0000
  H   H7        1.0  0.03016  0.95162  0.12715  1.0000
  H   H8        1.0  0.01141  0.93043  0.13180  1.0000
  C   C14       1.0  0.35145  0.30966  0.33850  1.0000
  C   C15       1.0  0.36031  0.31579  0.25810  1.0000
  N   N3        1.0  0.37615  0.32570  0.26400  1.0000
  C   C16       1.0  0.38441  0.33035  0.34218  1.0000
  C   C17       1.0  0.40098  0.34031  0.34293  1.0000
  C   C18       1.0  0.42535  0.35441  0.26256  1.0000
  N   N4        1.0  0.40936  0.34551  0.26529  1.0000
  H   H9        1.0  0.43088  0.35710  0.20144  1.0000
  C   C19       1.0  0.35372  0.31204  0.16607  1.0000
  H   H10       1.0  0.34103  0.30409  0.16508  1.0000
  H   H11       1.0  0.36106  0.29467  0.12956  1.0000
  H   H12       1.0  0.35438  0.33474  0.13091  1.0000
  C   C20       1.0  0.65597  0.69779  0.33850  1.0000
  C   C21       1.0  0.64712  0.69159  0.25814  1.0000
  N   N5        1.0  0.63127  0.68168  0.26412  1.0000
  C   C22       1.0  0.62302  0.67711  0.34233  1.0000
  C   C23       1.0  0.60644  0.66716  0.34316  1.0000
  C   C24       1.0  0.58208  0.65291  0.26293  1.0000
  N   N6        1.0  0.59806  0.66183  0.26557  1.0000
  H   H13       1.0  0.57655  0.65013  0.20184  1.0000
  C   C25       1.0  0.65371  0.69526  0.16609  1.0000
  H   H14       1.0  0.66640  0.70322  0.16505  1.0000
  H   H15       1.0  0.64636  0.71261  0.12948  1.0000
  H   H16       1.0  0.65305  0.67254  0.13107  1.0000
  C   C26       1.0  0.13133  0.82450  0.25722  1.0000
  C   C27       1.0  0.14779  0.81420  0.26023  1.0000
  H   H17       1.0  0.15387  0.80976  0.20135  1.0000
  C   C28       1.0  0.07315  0.85871  0.33858  1.0000
  C   C29       1.0  0.08142  0.85343  0.25659  1.0000
  C   C30       1.0  0.09809  0.84432  0.25545  1.0000
  C   C31       1.0  0.10651  0.83856  0.17426  1.0000
  C   C32       1.0  0.12297  0.82880  0.17513  1.0000
  H   H18       1.0  0.10069  0.84123  0.11386  1.0000
  H   H19       1.0  0.12876  0.82462  0.11533  1.0000
  H   H20       1.0  0.07514  0.85556  0.19733  1.0000
  C   C33       1.0  0.87607  0.18304  0.25714  1.0000
  C   C34       1.0  0.85961  0.19331  0.26023  1.0000
  H   H21       1.0  0.85353  0.19781  0.20137  1.0000
  C   C35       1.0  0.93425  0.14878  0.33823  1.0000
  C   C36       1.0  0.92599  0.15420  0.25629  1.0000
  C   C37       1.0  0.90931  0.16327  0.25523  1.0000
  C   C38       1.0  0.90090  0.16912  0.17409  1.0000
  C   C39       1.0  0.88443  0.17884  0.17503  1.0000
  H   H22       1.0  0.90672  0.16654  0.11366  1.0000
  H   H23       1.0  0.87865  0.18309  0.11526  1.0000
  H   H24       1.0  0.93227  0.15215  0.19702  1.0000
  C   C40       1.0  0.50508  0.27545  0.25686  1.0000
  C   C41       1.0  0.49462  0.30210  0.26018  1.0000
  H   H25       1.0  0.49034  0.31172  0.20148  1.0000
  C   C42       1.0  0.54059  0.18030  0.33904  1.0000
  C   C43       1.0  0.53535  0.19347  0.25669  1.0000
  C   C44       1.0  0.52563  0.22121  0.25514  1.0000
  C   C45       1.0  0.51990  0.23442  0.17388  1.0000
  C   C46       1.0  0.50975  0.26138  0.17472  1.0000
  H   H26       1.0  0.52295  0.22438  0.11357  1.0000
  H   H27       1.0  0.50565  0.27039  0.11498  1.0000
  H   H28       1.0  0.53808  0.18208  0.19775  1.0000
  C   C47       1.0  0.50231  0.73187  0.25700  1.0000
  C   C48       1.0  0.51274  0.70520  0.26042  1.0000
  H   H29       1.0  0.51701  0.69552  0.20174  1.0000
  C   C49       1.0  0.46683  0.82713  0.33882  1.0000
  C   C50       1.0  0.47207  0.81390  0.25653  1.0000
  C   C51       1.0  0.48178  0.78615  0.25509  1.0000
  C   C52       1.0  0.48749  0.77287  0.17388  1.0000
  C   C53       1.0  0.49762  0.74589  0.17481  1.0000
  H   H30       1.0  0.48444  0.78288  0.11353  1.0000
  H   H31       1.0  0.50170  0.73683  0.11511  1.0000
  H   H32       1.0  0.46933  0.82525  0.19754  1.0000
  C   C54       1.0  0.01752  0.81550  0.33825  1.0000
  C   C55       1.0  0.01147  0.80158  0.25790  1.0000
  N   N7        1.0  0.00140  0.77595  0.26416  1.0000
  C   C56       1.0  0.99657  0.76240  0.34261  1.0000
  C   C57       1.0  0.98628  0.73543  0.34335  1.0000
  C   C58       1.0  0.97159  0.69554  0.26223  1.0000
  N   N8        1.0  0.98101  0.72204  0.26538  1.0000
  H   H33       1.0  0.96866  0.68616  0.20098  1.0000
  C   C59       1.0  0.01532  0.81252  0.16576  1.0000
  H   H34       1.0  0.02345  0.83303  0.16454  1.0000
  H   H35       1.0  0.00400  0.81900  0.13136  1.0000
  H   H36       1.0  0.02121  0.79333  0.12864  1.0000
  C   C60       1.0  0.98991  0.19184  0.33795  1.0000
  C   C61       1.0  0.99591  0.20588  0.25763  1.0000
  N   N9        1.0  0.00597  0.23152  0.26398  1.0000
  C   C62       1.0  0.01083  0.24499  0.34249  1.0000
  C   C63       1.0  0.02111  0.27198  0.34331  1.0000
  C   C64       1.0  0.03580  0.31193  0.26236  1.0000
  N   N10       1.0  0.02637  0.28542  0.26540  1.0000
  H   H37       1.0  0.03873  0.32134  0.20115  1.0000
  C   C65       1.0  0.99202  0.19505  0.16546  1.0000
  H   H38       1.0  0.98392  0.17451  0.16418  1.0000
  H   H39       1.0  0.00332  0.18868  0.13078  1.0000
  H   H40       1.0  0.98608  0.21427  0.12866  1.0000
  C   C66       1.0  0.30623  0.10345  0.25741  1.0000
  C   C67       1.0  0.30498  0.06998  0.26022  1.0000
  H   H41       1.0  0.30513  0.05741  0.20128  1.0000
  C   C68       1.0  0.31239  0.22085  0.33915  1.0000
  C   C69       1.0  0.31169  0.20401  0.25715  1.0000
  C   C70       1.0  0.30966  0.17063  0.25595  1.0000
  C   C71       1.0  0.30912  0.15337  0.17471  1.0000
  C   C72       1.0  0.30742  0.12014  0.17543  1.0000
  H   H42       1.0  0.31008  0.16483  0.11434  1.0000
  H   H43       1.0  0.30720  0.10821  0.11557  1.0000
  H   H44       1.0  0.31288  0.21614  0.19787  1.0000
  C   C73       1.0  0.70118  0.90397  0.25734  1.0000
  C   C74       1.0  0.70243  0.93744  0.26014  1.0000
  H   H45       1.0  0.70228  0.95000  0.20119  1.0000
  C   C75       1.0  0.69505  0.78656  0.33911  1.0000
  C   C76       1.0  0.69573  0.80341  0.25712  1.0000
  C   C77       1.0  0.69776  0.83679  0.25589  1.0000
  C   C78       1.0  0.69831  0.85404  0.17465  1.0000
  C   C79       1.0  0.70000  0.88727  0.17536  1.0000
  H   H46       1.0  0.69735  0.84258  0.11429  1.0000
  H   H47       1.0  0.70022  0.89920  0.11550  1.0000
  H   H48       1.0  0.69456  0.79128  0.19784  1.0000
  C   C80       1.0  0.20323  0.55343  0.33875  1.0000
  C   C81       1.0  0.20271  0.57162  0.25829  1.0000
  N   N11       1.0  0.20153  0.60385  0.26395  1.0000
  C   C82       1.0  0.20073  0.62056  0.34197  1.0000
  C   C83       1.0  0.19904  0.65408  0.34255  1.0000
  C   C84       1.0  0.19639  0.70317  0.26211  1.0000
  N   N12       1.0  0.19828  0.67110  0.26491  1.0000
  H   H49       1.0  0.19574  0.71413  0.20096  1.0000
  C   C85       1.0  0.20294  0.55823  0.16634  1.0000
  H   H50       1.0  0.20411  0.53246  0.16554  1.0000
  H   H51       1.0  0.21327  0.56814  0.12923  1.0000
  H   H52       1.0  0.19163  0.56456  0.13169  1.0000
  C   C86       1.0  0.80417  0.45399  0.33878  1.0000
  C   C87       1.0  0.80471  0.43579  0.25832  1.0000
  N   N13       1.0  0.80589  0.40357  0.26397  1.0000
  C   C88       1.0  0.80668  0.38686  0.34199  1.0000
  C   C89       1.0  0.80837  0.35334  0.34257  1.0000
  C   C90       1.0  0.81100  0.30424  0.26213  1.0000
  N   N14       1.0  0.80912  0.33631  0.26493  1.0000
  H   H53       1.0  0.81165  0.29328  0.20098  1.0000
  C   C91       1.0  0.80448  0.44918  0.16638  1.0000
  H   H54       1.0  0.80331  0.47496  0.16557  1.0000
  H   H55       1.0  0.79416  0.43926  0.12924  1.0000
  H   H56       1.0  0.81579  0.44286  0.13176  1.0000
  C   C92       1.0  0.24779  0.41231  0.25859  1.0000
  C   C93       1.0  0.23501  0.43494  0.26146  1.0000
  H   H57       1.0  0.23006  0.44302  0.20248  1.0000
  C   C94       1.0  0.29223  0.33159  0.33981  1.0000
  C   C95       1.0  0.28590  0.34328  0.25790  1.0000
  C   C96       1.0  0.27322  0.36620  0.25688  1.0000
  C   C97       1.0  0.26672  0.37808  0.17569  1.0000
  C   C98       1.0  0.25413  0.40085  0.17654  1.0000
  H   H58       1.0  0.27108  0.37019  0.11525  1.0000
  H   H59       1.0  0.24961  0.40896  0.11668  1.0000
  H   H60       1.0  0.29062  0.33510  0.19852  1.0000
  C   C99       1.0  0.75963  0.59512  0.25862  1.0000
  C   C100      1.0  0.77241  0.57247  0.26152  1.0000
  H   H61       1.0  0.77736  0.56439  0.20255  1.0000
  C   C101      1.0  0.71519  0.67583  0.33977  1.0000
  C   C102      1.0  0.72152  0.66413  0.25786  1.0000
  C   C103      1.0  0.73420  0.64122  0.25686  1.0000
  C   C104      1.0  0.74071  0.62934  0.17568  1.0000
  C   C105      1.0  0.75330  0.60657  0.17656  1.0000
  H   H62       1.0  0.73635  0.63722  0.11523  1.0000
  H   H63       1.0  0.75782  0.59846  0.11671  1.0000
  H   H64       1.0  0.71680  0.67231  0.19847  1.0000
  C   C106      1.0  0.27876  0.94605  0.33734  1.0000
  C   C107      1.0  0.27193  0.93349  0.25694  1.0000
  N   N15       1.0  0.25962  0.91172  0.26268  1.0000
  C   C108      1.0  0.25317  0.90055  0.34073  1.0000
  C   C109      1.0  0.24049  0.87753  0.34146  1.0000
  C   C110      1.0  0.22191  0.84371  0.26131  1.0000
  N   N16       1.0  0.23407  0.86575  0.26392  1.0000
  H   H65       1.0  0.21768  0.83625  0.20023  1.0000
  C   C111      1.0  0.27731  0.94188  0.16500  1.0000
  H   H66       1.0  0.28704  0.95958  0.16411  1.0000
  H   H67       1.0  0.26695  0.95139  0.12734  1.0000
  H   H68       1.0  0.28177  0.92064  0.13096  1.0000
  C   C112      1.0  0.72865  0.06137  0.33732  1.0000
  C   C113      1.0  0.73548  0.07393  0.25693  1.0000
  N   N17       1.0  0.74778  0.09570  0.26268  1.0000
  C   C114      1.0  0.75423  0.10687  0.34075  1.0000
  C   C115      1.0  0.76691  0.12989  0.34148  1.0000
  C   C116      1.0  0.78549  0.16372  0.26134  1.0000
  N   N18       1.0  0.77333  0.14167  0.26394  1.0000
  H   H69       1.0  0.78971  0.17118  0.20027  1.0000
  C   C117      1.0  0.73010  0.06554  0.16498  1.0000
  H   H70       1.0  0.72037  0.04784  0.16408  1.0000
  H   H71       1.0  0.74046  0.05604  0.12732  1.0000
  H   H72       1.0  0.72563  0.08679  0.13095  1.0000
  C   C118      1.0  0.11227  0.41680  0.25579  1.0000
  C   C119      1.0  0.09592  0.40601  0.25880  1.0000
  H   H73       1.0  0.08956  0.40318  0.20000  1.0000
  C   C120      1.0  0.16893  0.45827  0.33864  1.0000
  C   C121      1.0  0.16085  0.45283  0.25623  1.0000
  C   C122      1.0  0.14478  0.44042  0.25457  1.0000
  C   C123      1.0  0.13636  0.43507  0.17317  1.0000
  C   C124      1.0  0.12025  0.42335  0.17376  1.0000
  H   H74       1.0  0.14184  0.43993  0.11289  1.0000
  H   H75       1.0  0.11434  0.41998  0.11391  1.0000
  H   H76       1.0  0.16665  0.45823  0.19718  1.0000
  C   C125      1.0  0.89514  0.59054  0.25582  1.0000
  C   C126      1.0  0.91149  0.60132  0.25878  1.0000
  H   H77       1.0  0.91785  0.60413  0.19996  1.0000
  C   C127      1.0  0.83848  0.54913  0.33880  1.0000
  C   C128      1.0  0.84656  0.55456  0.25638  1.0000
  C   C129      1.0  0.86263  0.56696  0.25469  1.0000
  C   C130      1.0  0.87105  0.57227  0.17326  1.0000
  C   C131      1.0  0.88716  0.58398  0.17382  1.0000
  H   H78       1.0  0.86557  0.56741  0.11300  1.0000
  H   H79       1.0  0.89307  0.58733  0.11395  1.0000
  H   H80       1.0  0.84075  0.54914  0.19734  1.0000
  C   C132      1.0  0.41941  0.90042  0.33983  1.0000
  C   C133      1.0  0.41051  0.90591  0.25929  1.0000
  N   N19       1.0  0.39476  0.91624  0.26522  1.0000
  C   C134      1.0  0.38674  0.92192  0.34352  1.0000
  C   C135      1.0  0.37052  0.93365  0.34398  1.0000
  C   C136      1.0  0.34689  0.95100  0.26268  1.0000
  N   N20       1.0  0.36234  0.93923  0.26596  1.0000
  H   H81       1.0  0.34159  0.95484  0.20143  1.0000
  C   C137      1.0  0.41712  0.90223  0.16726  1.0000
  H   H82       1.0  0.42969  0.89358  0.16632  1.0000
  H   H83       1.0  0.41680  0.92511  0.13287  1.0000
  H   H84       1.0  0.40958  0.88540  0.12998  1.0000
  C   C138      1.0  0.58799  0.10698  0.33981  1.0000
  C   C139      1.0  0.59689  0.10148  0.25926  1.0000
  N   N21       1.0  0.61263  0.09114  0.26514  1.0000
  C   C140      1.0  0.62066  0.08545  0.34343  1.0000
  C   C141      1.0  0.63688  0.07373  0.34386  1.0000
  C   C142      1.0  0.66052  0.05643  0.26254  1.0000
  N   N22       1.0  0.64506  0.06817  0.26583  1.0000
  H   H85       1.0  0.66581  0.05259  0.20128  1.0000
  C   C143      1.0  0.59026  0.10515  0.16726  1.0000
  H   H86       1.0  0.57768  0.11378  0.16636  1.0000
  H   H87       1.0  0.59059  0.08228  0.13286  1.0000
  H   H88       1.0  0.59779  0.12201  0.12996  1.0000
  C   C144      1.0  0.97531  0.56607  0.33813  1.0000
  C   C145      1.0  0.98155  0.55256  0.25776  1.0000
  N   N23       1.0  0.99252  0.52843  0.26437  1.0000
  C   C146      1.0  0.99801  0.51618  0.34316  1.0000
  C   C147      1.0  0.00949  0.49120  0.34394  1.0000
  C   C148      1.0  0.02617  0.45469  0.26238  1.0000
  N   N24       1.0  0.01521  0.47879  0.26571  1.0000
  H   H89       1.0  0.02985  0.44633  0.20115  1.0000
  C   C149      1.0  0.97721  0.56263  0.16549  1.0000
  H   H90       1.0  0.96834  0.58194  0.16408  1.0000
  H   H91       1.0  0.97201  0.54256  0.12903  1.0000
  H   H92       1.0  0.98822  0.57057  0.13055  1.0000
  C   C150      1.0  0.51532  0.02890  0.25630  1.0000
  C   C151      1.0  0.52672  0.05397  0.25995  1.0000
  H   H93       1.0  0.53102  0.06366  0.20137  1.0000
  C   C152      1.0  0.47526  0.94135  0.33874  1.0000
  C   C153      1.0  0.48090  0.95355  0.25610  1.0000
  C   C154      1.0  0.49230  0.97869  0.25444  1.0000
  C   C155      1.0  0.49825  0.99144  0.17307  1.0000
  C   C156      1.0  0.50967  0.01640  0.17399  1.0000
  H   H94       1.0  0.49432  0.98269  0.11268  1.0000
  H   H95       1.0  0.51381  0.02533  0.11425  1.0000
  H   H96       1.0  0.47678  0.94393  0.19708  1.0000
  C   C157      1.0  0.47927  0.34211  0.34270  1.0000
  C   C158      1.0  0.46214  0.33780  0.34187  1.0000
  C   C159      1.0  0.45142  0.36413  0.34142  1.0000
  C   C160      1.0  0.45810  0.39515  0.34189  1.0000
  C   C161      1.0  0.47526  0.39990  0.34275  1.0000
  C   C162      1.0  0.48572  0.37318  0.34302  1.0000
  H   H97       1.0  0.45043  0.41438  0.34224  1.0000
  H   H98       1.0  0.49816  0.37636  0.34378  1.0000
  H   H99       1.0  0.45744  0.31523  0.34208  1.0000
  C   C163      1.0  0.52814  0.66527  0.34306  1.0000
  C   C164      1.0  0.54527  0.66962  0.34294  1.0000
  C   C165      1.0  0.55601  0.64332  0.34189  1.0000
  C   C166      1.0  0.54934  0.61228  0.34116  1.0000
  C   C167      1.0  0.53218  0.60748  0.34137  1.0000
  C   C168      1.0  0.52171  0.63418  0.34209  1.0000
  H   H100      1.0  0.55702  0.59307  0.34067  1.0000
  H   H101      1.0  0.50927  0.63098  0.34195  1.0000
  H   H102      1.0  0.54996  0.69220  0.34377  1.0000
  C   C169      1.0  0.02814  0.84210  0.33879  1.0000
  C   C170      1.0  0.04527  0.83779  0.33963  1.0000
  C   C171      1.0  0.05600  0.86412  0.34005  1.0000
  C   C172      1.0  0.04931  0.89515  0.33962  1.0000
  C   C173      1.0  0.03214  0.89989  0.33873  1.0000
  C   C174      1.0  0.02169  0.87317  0.33847  1.0000
  H   H103      1.0  0.05698  0.91438  0.33923  1.0000
  H   H104      1.0  0.00924  0.87635  0.33770  1.0000
  H   H105      1.0  0.04997  0.81522  0.33940  1.0000
  C   C175      1.0  0.97928  0.16526  0.33841  1.0000
  C   C176      1.0  0.96215  0.16962  0.33856  1.0000
  C   C177      1.0  0.95140  0.14332  0.33962  1.0000
  C   C178      1.0  0.95806  0.11228  0.34036  1.0000
  C   C179      1.0  0.97522  0.10746  0.34012  1.0000
  C   C180      1.0  0.98570  0.13415  0.33938  1.0000
  H   H106      1.0  0.95037  0.09307  0.34087  1.0000
  H   H107      1.0  0.99814  0.13095  0.33949  1.0000
  H   H108      1.0  0.95746  0.19220  0.33774  1.0000
  C   C181      1.0  0.33499  0.29856  0.33943  1.0000
  C   C182      1.0  0.33165  0.26562  0.33976  1.0000
  C   C183      1.0  0.31538  0.25414  0.34066  1.0000
  C   C184      1.0  0.30233  0.27626  0.34111  1.0000
  C   C185      1.0  0.30536  0.30936  0.34103  1.0000
  C   C186      1.0  0.32175  0.32019  0.34012  1.0000
  H   H109      1.0  0.29050  0.26818  0.34099  1.0000
  H   H110      1.0  0.32409  0.34409  0.33958  1.0000
  H   H111      1.0  0.34118  0.24981  0.33895  1.0000
  C   C187      1.0  0.67244  0.70888  0.33937  1.0000
  C   C188      1.0  0.67578  0.74182  0.33973  1.0000
  C   C189      1.0  0.69205  0.75329  0.34063  1.0000
  C   C190      1.0  0.70510  0.73116  0.34106  1.0000
  C   C191      1.0  0.70207  0.69806  0.34097  1.0000
  C   C192      1.0  0.68567  0.68724  0.34005  1.0000
  H   H112      1.0  0.71693  0.73924  0.34095  1.0000
  H   H113      1.0  0.68333  0.66334  0.33951  1.0000
  H   H114      1.0  0.66625  0.75763  0.33895  1.0000
  C   C193      1.0  0.17242  0.79854  0.34206  1.0000
  C   C194      1.0  0.17577  0.76560  0.34174  1.0000
  C   C195      1.0  0.19204  0.75413  0.34084  1.0000
  C   C196      1.0  0.20509  0.77626  0.34039  1.0000
  C   C197      1.0  0.20205  0.80937  0.34046  1.0000
  C   C198      1.0  0.18565  0.82018  0.34136  1.0000
  H   H115      1.0  0.21692  0.76818  0.34050  1.0000
  H   H116      1.0  0.18332  0.84408  0.34190  1.0000
  H   H117      1.0  0.16623  0.74979  0.34254  1.0000
  C   C199      1.0  0.83497  0.20888  0.34212  1.0000
  C   C200      1.0  0.83163  0.24182  0.34177  1.0000
  C   C201      1.0  0.81536  0.25329  0.34086  1.0000
  C   C202      1.0  0.80231  0.23116  0.34042  1.0000
  C   C203      1.0  0.80534  0.19805  0.34050  1.0000
  C   C204      1.0  0.82174  0.18724  0.34144  1.0000
  H   H118      1.0  0.79048  0.23924  0.34051  1.0000
  H   H119      1.0  0.82408  0.16334  0.34198  1.0000
  H   H120      1.0  0.84116  0.25763  0.34255  1.0000
  C   C205      1.0  0.04301  0.41542  0.34069  1.0000
  C   C206      1.0  0.03679  0.38423  0.34073  1.0000
  C   C207      1.0  0.04747  0.35790  0.34052  1.0000
  C   C208      1.0  0.06458  0.36305  0.34060  1.0000
  C   C209      1.0  0.07094  0.39430  0.34095  1.0000
  C   C210      1.0  0.06006  0.42035  0.34093  1.0000
  H   H121      1.0  0.07240  0.34406  0.34115  1.0000
  H   H122      1.0  0.06457  0.44307  0.34161  1.0000
  H   H123      1.0  0.02437  0.38070  0.34142  1.0000
  C   C211      1.0  0.96442  0.59204  0.33836  1.0000
  C   C212      1.0  0.97062  0.62323  0.33895  1.0000
  C   C213      1.0  0.95992  0.64953  0.34018  1.0000
  C   C214      1.0  0.94282  0.64434  0.34107  1.0000
  C   C215      1.0  0.93648  0.61307  0.34085  1.0000
  C   C216      1.0  0.94737  0.58705  0.33949  1.0000
  H   H124      1.0  0.93498  0.66331  0.34242  1.0000
  H   H125      1.0  0.94289  0.56432  0.33942  1.0000
  H   H126      1.0  0.98304  0.62679  0.33876  1.0000
  C   C217      1.0  0.46441  0.91542  0.34081  1.0000
  C   C218      1.0  0.47062  0.88423  0.34075  1.0000
  C   C219      1.0  0.45993  0.85790  0.34095  1.0000
  C   C220      1.0  0.44282  0.86307  0.34090  1.0000
  C   C221      1.0  0.43647  0.89432  0.34054  1.0000
  C   C222      1.0  0.44735  0.92037  0.34058  1.0000
  H   H127      1.0  0.43500  0.84408  0.34032  1.0000
  H   H128      1.0  0.44285  0.94309  0.33991  1.0000
  H   H129      1.0  0.48304  0.88069  0.34003  1.0000
  C   C223      1.0  0.54299  0.09203  0.34314  1.0000
  C   C224      1.0  0.53679  0.12323  0.34257  1.0000
  C   C225      1.0  0.54748  0.14953  0.34132  1.0000
  C   C226      1.0  0.56459  0.14435  0.34040  1.0000
  C   C227      1.0  0.57093  0.11309  0.34063  1.0000
  C   C228      1.0  0.56004  0.08706  0.34200  1.0000
  H   H130      1.0  0.57242  0.16333  0.33905  1.0000
  H   H131      1.0  0.56454  0.06433  0.34206  1.0000
  H   H132      1.0  0.52436  0.12677  0.34276  1.0000
  C   C229      1.0  0.18474  0.47202  0.34065  1.0000
  C   C230      1.0  0.18650  0.50535  0.33912  1.0000
  C   C231      1.0  0.20215  0.51965  0.33974  1.0000
  C   C232      1.0  0.21620  0.49992  0.34168  1.0000
  C   C233      1.0  0.21470  0.46639  0.34300  1.0000
  C   C234      1.0  0.19887  0.45276  0.34248  1.0000
  H   H133      1.0  0.22759  0.51004  0.34201  1.0000
  H   H134      1.0  0.19762  0.42854  0.34305  1.0000
  H   H135      1.0  0.17625  0.51938  0.33752  1.0000
  C   C235      1.0  0.82268  0.53539  0.34083  1.0000
  C   C236      1.0  0.82091  0.50206  0.33923  1.0000
  C   C237      1.0  0.80526  0.48776  0.33978  1.0000
  C   C238      1.0  0.79121  0.50750  0.34170  1.0000
  C   C239      1.0  0.79272  0.54103  0.34308  1.0000
  C   C240      1.0  0.80854  0.55465  0.34263  1.0000
  H   H136      1.0  0.77982  0.49738  0.34200  1.0000
  H   H137      1.0  0.80979  0.57887  0.34323  1.0000
  H   H138      1.0  0.83116  0.48802  0.33764  1.0000
  C   C241      1.0  0.32267  0.97204  0.34084  1.0000
  C   C242      1.0  0.32090  0.00537  0.34240  1.0000
  C   C243      1.0  0.30525  0.01966  0.34177  1.0000
  C   C244      1.0  0.29120  0.99992  0.33981  1.0000
  C   C245      1.0  0.29271  0.96639  0.33846  1.0000
  C   C246      1.0  0.30854  0.95277  0.33897  1.0000
  H   H139      1.0  0.27981  0.01003  0.33948  1.0000
  H   H140      1.0  0.30979  0.92855  0.33838  1.0000
  H   H141      1.0  0.33115  0.01940  0.34403  1.0000
  C   C247      1.0  0.68473  0.03538  0.34069  1.0000
  C   C248      1.0  0.68650  0.00206  0.34228  1.0000
  C   C249      1.0  0.70215  0.98777  0.34172  1.0000
  C   C250      1.0  0.71620  0.00750  0.33979  1.0000
  C   C251      1.0  0.71469  0.04103  0.33842  1.0000
  C   C252      1.0  0.69887  0.05465  0.33887  1.0000
  H   H142      1.0  0.72760  0.99739  0.33949  1.0000
  H   H143      1.0  0.69762  0.07887  0.33826  1.0000
  H   H144      1.0  0.67625  0.98802  0.34388  1.0000
  C   C253      1.0  0.48228  0.43082  0.34381  1.0000
  C   C254      1.0  0.48718  0.44636  0.42423  1.0000
  N   N25       1.0  0.49537  0.47446  0.41841  1.0000
  C   C255      1.0  0.49943  0.48916  0.34024  1.0000
  C   C256      1.0  0.50813  0.51825  0.33958  1.0000
  C   C257      1.0  0.52079  0.56097  0.42011  1.0000
  N   N26       1.0  0.51259  0.53292  0.41729  1.0000
  H   H145      1.0  0.52340  0.57079  0.48125  1.0000
  C   C258      1.0  0.48428  0.43419  0.51619  1.0000
  H   H146      1.0  0.47755  0.41186  0.51714  1.0000
  H   H147      1.0  0.47727  0.45162  0.55436  1.0000
  H   H148      1.0  0.49601  0.43041  0.54966  1.0000
  C   C259      1.0  0.01258  0.97452  0.42339  1.0000
  C   C260      1.0  0.02110  0.94533  0.42044  1.0000
  H   H149      1.0  0.02415  0.93424  0.47937  1.0000
  C   C261      1.0  0.98218  0.07658  0.34169  1.0000
  C   C262      1.0  0.98667  0.06217  0.42376  1.0000
  C   C263      1.0  0.99517  0.03290  0.42499  1.0000
  C   C264      1.0  0.99981  0.01815  0.50624  1.0000
  C   C265      1.0  0.00839  0.98920  0.50545  1.0000
  H   H150      1.0  0.99697  0.02835  0.56665  1.0000
  H   H151      1.0  0.01157  0.97898  0.56531  1.0000
  H   H152      1.0  0.98396  0.07335  0.48302  1.0000
  C   C266      1.0  0.37608  0.32452  0.42427  1.0000
  C   C267      1.0  0.35962  0.31423  0.42125  1.0000
  H   H153      1.0  0.35354  0.30979  0.48013  1.0000
  C   C268      1.0  0.43426  0.35872  0.34291  1.0000
  C   C269      1.0  0.42599  0.35344  0.42490  1.0000
  C   C270      1.0  0.40932  0.34434  0.42604  1.0000
  C   C271      1.0  0.40090  0.33857  0.50722  1.0000
  C   C272      1.0  0.38444  0.32882  0.50635  1.0000
  H   H154      1.0  0.40672  0.34124  0.56764  1.0000
  H   H155      1.0  0.37865  0.32464  0.56616  1.0000
  H   H156      1.0  0.43227  0.35557  0.48415  1.0000
  C   C273      1.0  0.63134  0.68303  0.42437  1.0000
  C   C274      1.0  0.64780  0.69331  0.42129  1.0000
  H   H157      1.0  0.65389  0.69781  0.48013  1.0000
  C   C275      1.0  0.57316  0.64876  0.34332  1.0000
  C   C276      1.0  0.58143  0.65418  0.42525  1.0000
  C   C277      1.0  0.59810  0.66325  0.42630  1.0000
  C   C278      1.0  0.60651  0.66911  0.50745  1.0000
  C   C279      1.0  0.62298  0.67883  0.50649  1.0000
  H   H158      1.0  0.60070  0.66652  0.56787  1.0000
  H   H159      1.0  0.62877  0.68308  0.56626  1.0000
  H   H160      1.0  0.57515  0.65214  0.48452  1.0000
  C   C280      1.0  0.15596  0.80963  0.34299  1.0000
  C   C281      1.0  0.14710  0.81577  0.42338  1.0000
  N   N27       1.0  0.13126  0.82568  0.41748  1.0000
  C   C282      1.0  0.12300  0.83034  0.33930  1.0000
  C   C283      1.0  0.10643  0.84029  0.33856  1.0000
  C   C284      1.0  0.08206  0.85439  0.41892  1.0000
  N   N28       1.0  0.09805  0.84549  0.41619  1.0000
  H   H161      1.0  0.07653  0.85710  0.48004  1.0000
  C   C285      1.0  0.15369  0.81202  0.51542  1.0000
  H   H162      1.0  0.16638  0.80407  0.51641  1.0000
  H   H163      1.0  0.14635  0.79465  0.55193  1.0000
  H   H164      1.0  0.15303  0.83472  0.55057  1.0000
  C   C286      1.0  0.85144  0.19779  0.34301  1.0000
  C   C287      1.0  0.86029  0.19158  0.42336  1.0000
  N   N29       1.0  0.87613  0.18168  0.41740  1.0000
  C   C288      1.0  0.88439  0.17711  0.33919  1.0000
  C   C289      1.0  0.90097  0.16717  0.33837  1.0000
  C   C290      1.0  0.92533  0.15292  0.41862  1.0000
  N   N30       1.0  0.90934  0.16183  0.41597  1.0000
  H   H165      1.0  0.93085  0.15012  0.47971  1.0000
  C   C291      1.0  0.85370  0.19527  0.51541  1.0000
  H   H166      1.0  0.84101  0.20322  0.51645  1.0000
  H   H167      1.0  0.86104  0.21261  0.55202  1.0000
  H   H168      1.0  0.85436  0.17255  0.55045  1.0000
  C   C292      1.0  0.48989  0.31551  0.34324  1.0000
  C   C293      1.0  0.49594  0.30159  0.42360  1.0000
  N   N31       1.0  0.50601  0.27595  0.41734  1.0000
  C   C294      1.0  0.51083  0.26240  0.33889  1.0000
  C   C295      1.0  0.52112  0.23543  0.33815  1.0000
  C   C296      1.0  0.53581  0.19553  0.41927  1.0000
  N   N32       1.0  0.52639  0.22204  0.41611  1.0000
  H   H169      1.0  0.53874  0.18615  0.48053  1.0000
  C   C297      1.0  0.49209  0.31253  0.51573  1.0000
  H   H170      1.0  0.48396  0.33304  0.51695  1.0000
  H   H171      1.0  0.50340  0.31900  0.55014  1.0000
  H   H172      1.0  0.48619  0.29334  0.55285  1.0000
  C   C298      1.0  0.51750  0.69186  0.34353  1.0000
  C   C299      1.0  0.51150  0.70590  0.42383  1.0000
  N   N33       1.0  0.50144  0.73154  0.41750  1.0000
  C   C300      1.0  0.49658  0.74500  0.33899  1.0000
  C   C301      1.0  0.48629  0.77199  0.33816  1.0000
  C   C302      1.0  0.47161  0.81194  0.41911  1.0000
  N   N34       1.0  0.48103  0.78543  0.41607  1.0000
  H   H173      1.0  0.46868  0.82135  0.48033  1.0000
  C   C303      1.0  0.51540  0.69507  0.51602  1.0000
  H   H174      1.0  0.52350  0.67453  0.51729  1.0000
  H   H175      1.0  0.50410  0.68869  0.55068  1.0000
  H   H176      1.0  0.52133  0.71429  0.55282  1.0000
  C   C304      1.0  0.00233  0.77544  0.42464  1.0000
  C   C305      1.0  0.01279  0.80209  0.42131  1.0000
  H   H177      1.0  0.01707  0.81171  0.48002  1.0000
  C   C306      1.0  0.96681  0.68031  0.34247  1.0000
  C   C307      1.0  0.97207  0.69347  0.42481  1.0000
  C   C308      1.0  0.98178  0.72121  0.42636  1.0000
  C   C309      1.0  0.98751  0.73442  0.50762  1.0000
  C   C310      1.0  0.99766  0.76138  0.50678  1.0000
  H   H178      1.0  0.98447  0.72437  0.56793  1.0000
  H   H179      1.0  0.00176  0.77038  0.56651  1.0000
  H   H180      1.0  0.96932  0.68209  0.48375  1.0000
  C   C311      1.0  0.00511  0.23186  0.42448  1.0000
  C   C312      1.0  0.99467  0.20518  0.42105  1.0000
  H   H181      1.0  0.99041  0.19550  0.47973  1.0000
  C   C313      1.0  0.04057  0.32713  0.34265  1.0000
  C   C314      1.0  0.03532  0.31392  0.42494  1.0000
  C   C315      1.0  0.02562  0.28615  0.42638  1.0000
  C   C316      1.0  0.01992  0.27286  0.50760  1.0000
  C   C317      1.0  0.00980  0.24587  0.50667  1.0000
  H   H182      1.0  0.02297  0.28287  0.56795  1.0000
  H   H183      1.0  0.00571  0.23680  0.56637  1.0000
  H   H184      1.0  0.03808  0.32524  0.48394  1.0000
  C   C318      1.0  0.30416  0.05344  0.34282  1.0000
  C   C319      1.0  0.30471  0.07163  0.42326  1.0000
  N   N35       1.0  0.30590  0.10386  0.41760  1.0000
  C   C320      1.0  0.30669  0.12056  0.33957  1.0000
  C   C321      1.0  0.30838  0.15408  0.33898  1.0000
  C   C322      1.0  0.31102  0.20318  0.41940  1.0000
  N   N36       1.0  0.30913  0.17112  0.41661  1.0000
  H   H185      1.0  0.31167  0.21415  0.48055  1.0000
  C   C323      1.0  0.30447  0.05824  0.51520  1.0000
  H   H186      1.0  0.30330  0.03247  0.51601  1.0000
  H   H187      1.0  0.29416  0.06818  0.55234  1.0000
  H   H188      1.0  0.31579  0.06455  0.54982  1.0000
  C   C324      1.0  0.70324  0.95399  0.34272  1.0000
  C   C325      1.0  0.70270  0.93579  0.42318  1.0000
  N   N37       1.0  0.70152  0.90357  0.41752  1.0000
  C   C326      1.0  0.70073  0.88686  0.33950  1.0000
  C   C327      1.0  0.69904  0.85334  0.33893  1.0000
  C   C328      1.0  0.69641  0.80424  0.41936  1.0000
  N   N38       1.0  0.69829  0.83631  0.41656  1.0000
  H   H189      1.0  0.69575  0.79328  0.48051  1.0000
  C   C329      1.0  0.70294  0.94918  0.51512  1.0000
  H   H190      1.0  0.70410  0.97496  0.51593  1.0000
  H   H191      1.0  0.71325  0.93926  0.55225  1.0000
  H   H192      1.0  0.69162  0.94286  0.54976  1.0000
  C   C330      1.0  0.20118  0.60345  0.42413  1.0000
  C   C331      1.0  0.20243  0.56997  0.42135  1.0000
  H   H193      1.0  0.20228  0.55741  0.48029  1.0000
  C   C332      1.0  0.19504  0.72085  0.34236  1.0000
  C   C333      1.0  0.19573  0.70400  0.42435  1.0000
  C   C334      1.0  0.19776  0.67063  0.42557  1.0000
  C   C335      1.0  0.19831  0.65338  0.50682  1.0000
  C   C336      1.0  0.20000  0.62014  0.50611  1.0000
  H   H194      1.0  0.19735  0.66484  0.56718  1.0000
  H   H195      1.0  0.20022  0.60822  0.56598  1.0000
  H   H196      1.0  0.19455  0.71614  0.48362  1.0000
  C   C337      1.0  0.80623  0.40396  0.42415  1.0000
  C   C338      1.0  0.80499  0.43744  0.42136  1.0000
  H   H197      1.0  0.80514  0.45000  0.48031  1.0000
  C   C339      1.0  0.81236  0.28656  0.34237  1.0000
  C   C340      1.0  0.81168  0.30341  0.42437  1.0000
  C   C341      1.0  0.80965  0.33679  0.42559  1.0000
  C   C342      1.0  0.80911  0.35404  0.50684  1.0000
  C   C343      1.0  0.80741  0.38727  0.50613  1.0000
  H   H198      1.0  0.81007  0.34258  0.56721  1.0000
  H   H199      1.0  0.80720  0.39920  0.56600  1.0000
  H   H200      1.0  0.81286  0.29128  0.48364  1.0000
  C   C344      1.0  0.22865  0.44604  0.34408  1.0000
  C   C345      1.0  0.23549  0.43351  0.42450  1.0000
  N   N39       1.0  0.24780  0.41175  0.41877  1.0000
  C   C346      1.0  0.25425  0.40057  0.34072  1.0000
  C   C347      1.0  0.26692  0.37755  0.34001  1.0000
  C   C348      1.0  0.28550  0.34372  0.42017  1.0000
  N   N40       1.0  0.27335  0.36577  0.41755  1.0000
  H   H201      1.0  0.28973  0.33626  0.48125  1.0000
  C   C349      1.0  0.23011  0.44191  0.51644  1.0000
  H   H202      1.0  0.22037  0.45959  0.51733  1.0000
  H   H203      1.0  0.24047  0.45143  0.55408  1.0000
  H   H204      1.0  0.22565  0.42066  0.55050  1.0000
  C   C350      1.0  0.77876  0.56136  0.34416  1.0000
  C   C351      1.0  0.77193  0.57393  0.42455  1.0000
  N   N41       1.0  0.75962  0.59570  0.41880  1.0000
  C   C352      1.0  0.75318  0.60686  0.34073  1.0000
  C   C353      1.0  0.74050  0.62989  0.34000  1.0000
  C   C354      1.0  0.72192  0.66372  0.42014  1.0000
  N   N42       1.0  0.73408  0.64167  0.41753  1.0000
  H   H205      1.0  0.71769  0.67117  0.48121  1.0000
  C   C355      1.0  0.77731  0.56555  0.51650  1.0000
  H   H206      1.0  0.78704  0.54785  0.51741  1.0000
  H   H207      1.0  0.76695  0.55605  0.55418  1.0000
  H   H208      1.0  0.78178  0.58680  0.55052  1.0000
  C   C356      1.0  0.25963  0.91229  0.42285  1.0000
  C   C357      1.0  0.27241  0.93492  0.41998  1.0000
  H   H209      1.0  0.27735  0.94302  0.47896  1.0000
  C   C358      1.0  0.21517  0.83160  0.34167  1.0000
  C   C359      1.0  0.22151  0.84328  0.42358  1.0000
  C   C360      1.0  0.23419  0.86620  0.42459  1.0000
  C   C361      1.0  0.24069  0.87807  0.50577  1.0000
  C   C362      1.0  0.25329  0.90083  0.50491  1.0000
  H   H210      1.0  0.23634  0.87018  0.56622  1.0000
  H   H211      1.0  0.25782  0.90894  0.56477  1.0000
  H   H212      1.0  0.21679  0.83510  0.48297  1.0000
  C   C363      1.0  0.74777  0.09512  0.42286  1.0000
  C   C364      1.0  0.73499  0.07249  0.41997  1.0000
  H   H213      1.0  0.73005  0.06438  0.47894  1.0000
  C   C365      1.0  0.79222  0.17582  0.34171  1.0000
  C   C366      1.0  0.78589  0.16413  0.42361  1.0000
  C   C367      1.0  0.77321  0.14122  0.42462  1.0000
  C   C368      1.0  0.76671  0.12934  0.50579  1.0000
  C   C369      1.0  0.75411  0.10657  0.50493  1.0000
  H   H214      1.0  0.77107  0.13722  0.56625  1.0000
  H   H215      1.0  0.74959  0.09846  0.56477  1.0000
  H   H216      1.0  0.79061  0.17231  0.48301  1.0000
  C   C370      1.0  0.08800  0.40038  0.34171  1.0000
  C   C371      1.0  0.09690  0.40591  0.42224  1.0000
  N   N43       1.0  0.11264  0.41624  0.41630  1.0000
  C   C372      1.0  0.12067  0.42192  0.33799  1.0000
  C   C373      1.0  0.13689  0.43364  0.33752  1.0000
  C   C374      1.0  0.16052  0.45099  0.41881  1.0000
  N   N44       1.0  0.14507  0.43922  0.41555  1.0000
  H   H217      1.0  0.16581  0.45484  0.48007  1.0000
  C   C375      1.0  0.09028  0.40223  0.51426  1.0000
  H   H218      1.0  0.07772  0.39356  0.51520  1.0000
  H   H219      1.0  0.09060  0.42510  0.54866  1.0000
  H   H220      1.0  0.09783  0.38540  0.55154  1.0000
  C   C376      1.0  0.91943  0.60695  0.34165  1.0000
  C   C377      1.0  0.91053  0.60147  0.42221  1.0000
  N   N45       1.0  0.89478  0.59115  0.41634  1.0000
  C   C378      1.0  0.88675  0.58546  0.33805  1.0000
  C   C379      1.0  0.87053  0.57375  0.33762  1.0000
  C   C380      1.0  0.84689  0.55644  0.41895  1.0000
  N   N46       1.0  0.86235  0.56819  0.41566  1.0000
  H   H221      1.0  0.84160  0.55259  0.48023  1.0000
  C   C381      1.0  0.91716  0.60516  0.51421  1.0000
  H   H222      1.0  0.92973  0.61377  0.51510  1.0000
  H   H223      1.0  0.91681  0.58230  0.54868  1.0000
  H   H224      1.0  0.90963  0.62204  0.55145  1.0000
  C   C382      1.0  0.39514  0.91681  0.42572  1.0000
  C   C383      1.0  0.41148  0.90602  0.42273  1.0000
  H   H225      1.0  0.41785  0.90320  0.48153  1.0000
  C   C384      1.0  0.33848  0.95830  0.34285  1.0000
  C   C385      1.0  0.34656  0.95284  0.42527  1.0000
  C   C386      1.0  0.36263  0.94043  0.42693  1.0000
  C   C387      1.0  0.37104  0.93509  0.50834  1.0000
  C   C388      1.0  0.38716  0.92337  0.50775  1.0000
  H   H226      1.0  0.36557  0.93994  0.56861  1.0000
  H   H227      1.0  0.39306  0.92000  0.56760  1.0000
  H   H228      1.0  0.34075  0.95825  0.48432  1.0000
  C   C389      1.0  0.61226  0.09054  0.42565  1.0000
  C   C390      1.0  0.59592  0.10132  0.42268  1.0000
  H   H229      1.0  0.58956  0.10413  0.48150  1.0000
  C   C391      1.0  0.66893  0.04913  0.34270  1.0000
  C   C392      1.0  0.66084  0.05454  0.42511  1.0000
  C   C393      1.0  0.64477  0.06694  0.42680  1.0000
  C   C394      1.0  0.63636  0.07225  0.50823  1.0000
  C   C395      1.0  0.62024  0.08396  0.50766  1.0000
  H   H230      1.0  0.64183  0.06738  0.56848  1.0000
  H   H231      1.0  0.61434  0.08732  0.56752  1.0000
  H   H232      1.0  0.66665  0.04913  0.48415  1.0000
  C   C396      1.0  0.99210  0.52890  0.42521  1.0000
  C   C397      1.0  0.98070  0.55398  0.42156  1.0000
  H   H233      1.0  0.97640  0.56367  0.48014  1.0000
  C   C398      1.0  0.03216  0.44135  0.34275  1.0000
  C   C399      1.0  0.02652  0.45355  0.42540  1.0000
  C   C400      1.0  0.01511  0.47869  0.42706  1.0000
  C   C401      1.0  0.00917  0.49144  0.50844  1.0000
  C   C402      1.0  0.99775  0.51640  0.50752  1.0000
  H   H234      1.0  0.01310  0.48269  0.56882  1.0000
  H   H235      1.0  0.99361  0.52533  0.56726  1.0000
  H   H236      1.0  0.03064  0.44393  0.48442  1.0000
  C   C403      1.0  0.53211  0.06606  0.34338  1.0000
  C   C404      1.0  0.52586  0.05255  0.42375  1.0000
  N   N47       1.0  0.51490  0.02843  0.41713  1.0000
  C   C405      1.0  0.50941  0.01618  0.33835  1.0000
  C   C406      1.0  0.49793  0.99120  0.33756  1.0000
  C   C407      1.0  0.48124  0.95469  0.41912  1.0000
  N   N48       1.0  0.49221  0.97879  0.41579  1.0000
  H   H237      1.0  0.47757  0.94633  0.48035  1.0000
  C   C408      1.0  0.53020  0.06263  0.51602  1.0000
  H   H238      1.0  0.53908  0.08193  0.51743  1.0000
  H   H239      1.0  0.53540  0.04255  0.55249  1.0000
  H   H240      1.0  0.51919  0.07058  0.55095  1.0000
