data_image0
_chemical_formula_structural       C2H2C3H2CHC2H2C3H2CHC2H2C3H2CHC2H2C3H2CHC7H2N2O4CHC7H2N2O4CHC7H2N2O4CHC7H2N2O4CHC7H2N2O4CHC7H2N2O4CHC7H2N2O4CHC7H2N2O4CHC2H2C3H2CHC2H2C3H2CHC2H2C3H2CHC2H2C3H2CHC7H2N2O4CHC7H2N2O4CHC7H2N2O4CHC7H2N2O4CHC2H2C3H2CHC2H2C3H2CHC2H2C3H2CHC2H2C3H2CHC7H2N2O4CHC7H2N2O4CHC2H2C3H2CHC2H2C3H2CHC2H2C3H2CHC2H2C3H2CHC7H2N2O4CHC7H2N2O4CHC7H2N2O4CHC7H2N2O4CHC7H2N2O4CHC7H2N2O4CHC7H2N2O4CHC7H2N2O4CHC2H2C3H2CHC2H2C3H2CHC2H2C3H2CHC2H2C3H2CHC6H3N3C6H3N3C6H3N3C6H3N3C6H3N3C6H3N3C6H3N3C6H3N3C6H3N3C6H3N3C6H3N3C6H3N3C6H3N3C6H3N3C6H3N3C6H3N3C6H3N3C6H3N3C6H3N3C6H3N3C6H3N3C6H3N3C6H3N3C6H3N3C6H3N3C6H3N3C6H3N3C6H3N3C7H2N2O4CHC7H2N2O4CHC7H2N2O4CHC7H2N2O4CHC2H2C3H2CHC2H2C3H2CHC2H2C3H2CHC2H2C3H2CHC2H2C3H2CHC2H2C3H2CHC2H2C3H2CHC2H2C3H2CHC7H2N2O4CHC7H2N2O4CHC7H2N2O4CHC7H2N2O4CHC2H2C3H2CHC2H2C3H2CHC2H2C3H2CHC2H2C3H2CHC7H2N2O4CHC7H2N2O4CHC7H2N2O4CHC7H2N2O4CHC2H2C3H2CHC2H2C3H2CHC7H2N2O4CHC7H2N2O4CHC7H2N2O4CHC7H2N2O4CHC2H2C3H2CHC2H2C3H2CHC2H2C3H2CHC2H2C3H2CHC2H2C3H2CHC2H2C3H2CHC2H2C3H2CHC2H2C3H2CHC7H2N2O4CHC7H2N2O4CHC7H2N2O4CHC7H2N2O4CH
_chemical_formula_sum              "C756 H420 N168 O168"
_cell_length_a       103.768
_cell_length_b       103.768
_cell_length_c       14.9715
_cell_angle_alpha    90
_cell_angle_beta     90
_cell_angle_gamma    90

_space_group_name_H-M_alt    "P 1"
_space_group_IT_number       1

loop_
  _space_group_symop_operation_xyz
  'x, y, z'

loop_
  _atom_site_type_symbol
  _atom_site_label
  _atom_site_symmetry_multiplicity
  _atom_site_fract_x
  _atom_site_fract_y
  _atom_site_fract_z
  _atom_site_occupancy
  C   C1        1.0  0.12888  0.12779  0.28244  1.0000
  C   C2        1.0  0.11905  0.11868  0.29562  1.0000
  H   H1        1.0  0.13201  0.12957  0.21879  1.0000
  H   H2        1.0  0.11518  0.11426  0.24065  1.0000
  C   C3        1.0  0.15984  0.16644  0.31702  1.0000
  C   C4        1.0  0.14775  0.16583  0.27364  1.0000
  C   C5        1.0  0.13955  0.15521  0.28546  1.0000
  H   H3        1.0  0.14467  0.17323  0.23373  1.0000
  H   H4        1.0  0.13074  0.15532  0.25454  1.0000
  C   C6        1.0  0.16752  0.17733  0.30621  1.0000
  H   H5        1.0  0.16406  0.18476  0.27166  1.0000
  C   C7        1.0  0.87322  0.87457  0.28316  1.0000
  C   C8        1.0  0.88313  0.88358  0.29658  1.0000
  H   H6        1.0  0.87007  0.87286  0.21946  1.0000
  H   H7        1.0  0.88703  0.88801  0.24174  1.0000
  C   C9        1.0  0.84200  0.83612  0.31658  1.0000
  C   C10       1.0  0.85410  0.83667  0.27329  1.0000
  C   C11       1.0  0.86237  0.84723  0.28541  1.0000
  H   H8        1.0  0.85712  0.82927  0.23318  1.0000
  H   H9        1.0  0.87118  0.84707  0.25452  1.0000
  C   C12       1.0  0.83424  0.82529  0.30547  1.0000
  H   H10       1.0  0.83763  0.81789  0.27029  1.0000
  C   C13       1.0  0.87466  0.12878  0.28323  1.0000
  C   C14       1.0  0.88365  0.11885  0.29656  1.0000
  H   H11       1.0  0.87294  0.13193  0.21956  1.0000
  H   H12       1.0  0.88807  0.11495  0.24167  1.0000
  C   C15       1.0  0.83617  0.15993  0.31676  1.0000
  C   C16       1.0  0.83674  0.14785  0.27335  1.0000
  C   C17       1.0  0.84731  0.13958  0.28548  1.0000
  H   H13       1.0  0.82935  0.14481  0.23324  1.0000
  H   H14       1.0  0.84717  0.13078  0.25454  1.0000
  C   C18       1.0  0.82532  0.16767  0.30569  1.0000
  H   H15       1.0  0.81791  0.16425  0.27071  1.0000
  C   C19       1.0  0.12786  0.87312  0.28248  1.0000
  C   C20       1.0  0.11878  0.88297  0.29570  1.0000
  H   H16       1.0  0.12964  0.87000  0.21881  1.0000
  H   H17       1.0  0.11435  0.88685  0.24075  1.0000
  C   C21       1.0  0.16647  0.84211  0.31697  1.0000
  C   C22       1.0  0.16587  0.85420  0.27367  1.0000
  C   C23       1.0  0.15527  0.86242  0.28549  1.0000
  H   H18       1.0  0.17328  0.85727  0.23375  1.0000
  H   H19       1.0  0.15539  0.87122  0.25461  1.0000
  C   C24       1.0  0.17734  0.83440  0.30610  1.0000
  H   H20       1.0  0.18476  0.83785  0.27138  1.0000
  C   C25       1.0  0.08901  0.96665  0.27473  1.0000
  C   C26       1.0  0.09288  0.97548  0.20707  1.0000
  C   C27       1.0  0.09339  0.98875  0.22708  1.0000
  C   C28       1.0  0.08993  0.99349  0.31222  1.0000
  C   C29       1.0  0.08966  0.00695  0.32891  1.0000
  C   C30       1.0  0.08146  0.01528  0.27959  1.0000
  C   C31       1.0  0.08174  0.02866  0.29749  1.0000
  H   H21       1.0  0.07570  0.03450  0.26172  1.0000
  H   H22       1.0  0.09614  0.99509  0.17818  1.0000
  N   N1        1.0  0.07291  0.01010  0.21506  1.0000
  N   N2        1.0  0.09632  0.97209  0.11861  1.0000
  O   O1        1.0  0.07504  0.01463  0.13862  1.0000
  O   O2        1.0  0.08700  0.96737  0.07623  1.0000
  O   O3        1.0  0.06134  0.01221  0.23521  1.0000
  O   O4        1.0  0.10563  0.96436  0.11676  1.0000
  C   C32       1.0  0.08767  0.95369  0.25563  1.0000
  H   H23       1.0  0.08135  0.95131  0.20851  1.0000
  C   C33       1.0  0.91287  0.03517  0.27108  1.0000
  C   C34       1.0  0.90885  0.02620  0.20466  1.0000
  C   C35       1.0  0.90842  0.01297  0.22586  1.0000
  C   C36       1.0  0.91207  0.00839  0.31104  1.0000
  C   C37       1.0  0.91236  0.99497  0.32885  1.0000
  C   C38       1.0  0.92053  0.98657  0.28000  1.0000
  C   C39       1.0  0.92010  0.97318  0.29784  1.0000
  H   H24       1.0  0.92602  0.96727  0.26158  1.0000
  H   H25       1.0  0.90557  0.00654  0.17781  1.0000
  N   N3        1.0  0.92914  0.99166  0.21554  1.0000
  N   N4        1.0  0.90520  0.02944  0.11632  1.0000
  O   O5        1.0  0.92700  0.98713  0.13911  1.0000
  O   O6        1.0  0.91438  0.03423  0.07284  1.0000
  O   O7        1.0  0.94068  0.98947  0.23594  1.0000
  O   O8        1.0  0.89580  0.03707  0.11499  1.0000
  C   C40       1.0  0.91421  0.04808  0.25023  1.0000
  H   H26       1.0  0.92129  0.05022  0.20798  1.0000
  C   C41       1.0  0.03534  0.08878  0.27550  1.0000
  C   C42       1.0  0.02648  0.09257  0.20774  1.0000
  C   C43       1.0  0.01322  0.09311  0.22792  1.0000
  C   C44       1.0  0.00851  0.08976  0.31333  1.0000
  C   C45       1.0  0.99504  0.08962  0.33028  1.0000
  C   C46       1.0  0.98662  0.08146  0.28150  1.0000
  C   C47       1.0  0.97322  0.08209  0.29816  1.0000
  H   H27       1.0  0.96729  0.07621  0.26175  1.0000
  H   H28       1.0  0.00687  0.09583  0.17899  1.0000
  N   N5        1.0  0.99172  0.07267  0.21823  1.0000
  N   N6        1.0  0.02985  0.09594  0.11909  1.0000
  O   O9        1.0  0.98735  0.07472  0.14126  1.0000
  O   O10       1.0  0.03454  0.08658  0.07695  1.0000
  O   O11       1.0  0.98934  0.06120  0.23949  1.0000
  O   O12       1.0  0.03759  0.10525  0.11674  1.0000
  C   C48       1.0  0.04830  0.08743  0.25645  1.0000
  H   H29       1.0  0.05068  0.08124  0.20848  1.0000
  C   C49       1.0  0.96686  0.91277  0.27223  1.0000
  C   C50       1.0  0.97577  0.90882  0.20532  1.0000
  C   C51       1.0  0.98902  0.90838  0.22600  1.0000
  C   C52       1.0  0.99367  0.91199  0.31111  1.0000
  C   C53       1.0  0.00711  0.91234  0.32837  1.0000
  C   C54       1.0  0.01543  0.92054  0.27910  1.0000
  C   C55       1.0  0.02880  0.92034  0.29745  1.0000
  H   H30       1.0  0.03464  0.92639  0.26171  1.0000
  H   H31       1.0  0.99542  0.90558  0.17759  1.0000
  N   N7        1.0  0.01026  0.92903  0.21412  1.0000
  N   N8        1.0  0.97248  0.90524  0.11694  1.0000
  O   O13       1.0  0.01485  0.92687  0.13791  1.0000
  O   O14       1.0  0.96770  0.91447  0.07391  1.0000
  O   O15       1.0  0.01230  0.94062  0.23398  1.0000
  O   O16       1.0  0.96481  0.89586  0.11545  1.0000
  C   C56       1.0  0.95393  0.91408  0.25205  1.0000
  H   H32       1.0  0.95165  0.92084  0.20774  1.0000
  C   C57       1.0  0.16350  0.30871  0.29881  1.0000
  C   C58       1.0  0.16406  0.30030  0.22399  1.0000
  C   C59       1.0  0.16695  0.28710  0.23736  1.0000
  C   C60       1.0  0.16958  0.28211  0.32328  1.0000
  C   C61       1.0  0.17304  0.26893  0.33516  1.0000
  C   C62       1.0  0.18380  0.26332  0.29111  1.0000
  C   C63       1.0  0.18662  0.25009  0.30463  1.0000
  H   H33       1.0  0.19438  0.24621  0.27206  1.0000
  H   H34       1.0  0.16728  0.28110  0.18310  1.0000
  N   N9        1.0  0.19177  0.27106  0.23611  1.0000
  N   N10       1.0  0.16179  0.30521  0.13703  1.0000
  O   O17       1.0  0.19204  0.26695  0.15716  1.0000
  O   O18       1.0  0.17144  0.30372  0.08743  1.0000
  O   O19       1.0  0.20311  0.27156  0.26539  1.0000
  O   O20       1.0  0.15224  0.29986  0.10106  1.0000
  C   C64       1.0  0.16223  0.32191  0.28762  1.0000
  H   H35       1.0  0.16756  0.32611  0.24063  1.0000
  C   C65       1.0  0.83754  0.69379  0.29880  1.0000
  C   C66       1.0  0.83712  0.70220  0.22393  1.0000
  C   C67       1.0  0.83433  0.71542  0.23721  1.0000
  C   C68       1.0  0.83168  0.72042  0.32304  1.0000
  C   C69       1.0  0.82834  0.73364  0.33481  1.0000
  C   C70       1.0  0.81765  0.73934  0.29051  1.0000
  C   C71       1.0  0.81495  0.75259  0.30394  1.0000
  H   H36       1.0  0.80724  0.75654  0.27117  1.0000
  H   H37       1.0  0.83411  0.72142  0.18296  1.0000
  N   N11       1.0  0.80964  0.73166  0.23535  1.0000
  N   N12       1.0  0.83944  0.69727  0.13709  1.0000
  O   O21       1.0  0.80944  0.73576  0.15638  1.0000
  O   O22       1.0  0.82985  0.69884  0.08700  1.0000
  O   O23       1.0  0.79828  0.73127  0.26437  1.0000
  O   O24       1.0  0.84907  0.70254  0.10162  1.0000
  C   C72       1.0  0.83878  0.68059  0.28766  1.0000
  H   H38       1.0  0.83343  0.67639  0.24081  1.0000
  C   C73       1.0  0.69381  0.16442  0.29890  1.0000
  C   C74       1.0  0.70221  0.16482  0.22405  1.0000
  C   C75       1.0  0.71544  0.16760  0.23731  1.0000
  C   C76       1.0  0.72045  0.17025  0.32313  1.0000
  C   C77       1.0  0.73366  0.17358  0.33488  1.0000
  C   C78       1.0  0.73937  0.18426  0.29054  1.0000
  C   C79       1.0  0.75262  0.18696  0.30395  1.0000
  H   H39       1.0  0.75657  0.19465  0.27114  1.0000
  H   H40       1.0  0.72144  0.16781  0.18306  1.0000
  N   N13       1.0  0.73170  0.19228  0.23535  1.0000
  N   N14       1.0  0.69728  0.16250  0.13722  1.0000
  O   O25       1.0  0.73580  0.19246  0.15637  1.0000
  O   O26       1.0  0.69887  0.17208  0.08709  1.0000
  O   O27       1.0  0.73131  0.20363  0.26432  1.0000
  O   O28       1.0  0.70254  0.15286  0.10177  1.0000
  C   C80       1.0  0.68061  0.16319  0.28783  1.0000
  H   H41       1.0  0.67641  0.16854  0.24092  1.0000
  C   C81       1.0  0.30872  0.83845  0.29878  1.0000
  C   C82       1.0  0.30032  0.83788  0.22393  1.0000
  C   C83       1.0  0.28712  0.83498  0.23731  1.0000
  C   C84       1.0  0.28213  0.83236  0.32323  1.0000
  C   C85       1.0  0.26894  0.82889  0.33510  1.0000
  C   C86       1.0  0.26334  0.81813  0.29109  1.0000
  C   C87       1.0  0.25011  0.81530  0.30460  1.0000
  H   H42       1.0  0.24623  0.80755  0.27206  1.0000
  H   H43       1.0  0.28112  0.83464  0.18304  1.0000
  N   N15       1.0  0.27109  0.81015  0.23614  1.0000
  N   N16       1.0  0.30522  0.84015  0.13697  1.0000
  O   O29       1.0  0.26698  0.80987  0.15719  1.0000
  O   O30       1.0  0.30374  0.83049  0.08740  1.0000
  O   O31       1.0  0.27158  0.79882  0.26547  1.0000
  O   O32       1.0  0.29987  0.84969  0.10096  1.0000
  C   C88       1.0  0.32192  0.83975  0.28753  1.0000
  H   H44       1.0  0.32613  0.83441  0.24061  1.0000
  C   C89       1.0  0.83323  0.29062  0.27536  1.0000
  C   C90       1.0  0.83613  0.30374  0.28719  1.0000
  H   H45       1.0  0.83127  0.28733  0.21234  1.0000
  H   H46       1.0  0.83609  0.30962  0.23225  1.0000
  C   C91       1.0  0.82346  0.24226  0.31268  1.0000
  C   C92       1.0  0.83401  0.24815  0.26899  1.0000
  C   C93       1.0  0.83677  0.26128  0.28106  1.0000
  H   H47       1.0  0.83995  0.24288  0.22832  1.0000
  H   H48       1.0  0.84463  0.26509  0.24923  1.0000
  C   C94       1.0  0.82129  0.22911  0.30151  1.0000
  H   H49       1.0  0.82745  0.22410  0.26410  1.0000
  C   C95       1.0  0.16907  0.71155  0.27534  1.0000
  C   C96       1.0  0.16610  0.69844  0.28712  1.0000
  H   H50       1.0  0.17108  0.71482  0.21238  1.0000
  H   H51       1.0  0.16614  0.69256  0.23219  1.0000
  C   C97       1.0  0.17915  0.75984  0.31267  1.0000
  C   C98       1.0  0.16859  0.75402  0.26863  1.0000
  C   C99       1.0  0.16573  0.74091  0.28073  1.0000
  H   H52       1.0  0.16272  0.75932  0.22763  1.0000
  H   H53       1.0  0.15786  0.73714  0.24858  1.0000
  C   C100      1.0  0.18141  0.77299  0.30143  1.0000
  H   H54       1.0  0.17531  0.77801  0.26370  1.0000
  C   C101      1.0  0.29039  0.16902  0.27528  1.0000
  C   C102      1.0  0.30348  0.16602  0.28709  1.0000
  H   H55       1.0  0.28712  0.17103  0.21230  1.0000
  H   H56       1.0  0.30937  0.16605  0.23218  1.0000
  C   C103      1.0  0.24210  0.17915  0.31248  1.0000
  C   C104      1.0  0.24791  0.16859  0.26848  1.0000
  C   C105      1.0  0.26103  0.16572  0.28062  1.0000
  H   H57       1.0  0.24262  0.16272  0.22754  1.0000
  H   H58       1.0  0.26479  0.15785  0.24854  1.0000
  C   C106      1.0  0.22895  0.18141  0.30125  1.0000
  H   H59       1.0  0.22393  0.17532  0.26345  1.0000
  C   C107      1.0  0.71130  0.83318  0.27542  1.0000
  C   C108      1.0  0.69817  0.83606  0.28723  1.0000
  H   H60       1.0  0.71459  0.83122  0.21244  1.0000
  H   H61       1.0  0.69229  0.83601  0.23229  1.0000
  C   C109      1.0  0.75965  0.82345  0.31286  1.0000
  C   C110      1.0  0.75377  0.83401  0.26913  1.0000
  C   C111      1.0  0.74063  0.83676  0.28116  1.0000
  H   H62       1.0  0.75904  0.83993  0.22838  1.0000
  H   H63       1.0  0.73682  0.84461  0.24927  1.0000
  C   C112      1.0  0.77281  0.82129  0.30167  1.0000
  H   H64       1.0  0.77782  0.82745  0.26429  1.0000
  C   C113      1.0  0.40007  0.04447  0.29269  1.0000
  C   C114      1.0  0.39709  0.05222  0.21709  1.0000
  C   C115      1.0  0.39158  0.06459  0.22962  1.0000
  C   C116      1.0  0.38899  0.06954  0.31570  1.0000
  C   C117      1.0  0.38482  0.08257  0.32681  1.0000
  C   C118      1.0  0.37367  0.08758  0.28406  1.0000
  C   C119      1.0  0.37060  0.10085  0.29310  1.0000
  H   H65       1.0  0.36257  0.10428  0.26131  1.0000
  H   H66       1.0  0.38999  0.07026  0.17475  1.0000
  N   N17       1.0  0.36561  0.07920  0.23445  1.0000
  N   N18       1.0  0.39987  0.04763  0.12999  1.0000
  O   O33       1.0  0.36474  0.08267  0.15424  1.0000
  O   O34       1.0  0.40783  0.05476  0.09047  1.0000
  O   O35       1.0  0.35447  0.07867  0.26718  1.0000
  O   O36       1.0  0.38984  0.04682  0.08328  1.0000
  C   C120      1.0  0.40712  0.03314  0.28339  1.0000
  H   H67       1.0  0.41410  0.03302  0.23781  1.0000
  C   C121      1.0  0.60172  0.95726  0.28741  1.0000
  C   C122      1.0  0.60426  0.94934  0.21190  1.0000
  C   C123      1.0  0.60965  0.93692  0.22435  1.0000
  C   C124      1.0  0.61251  0.93209  0.31034  1.0000
  C   C125      1.0  0.61662  0.91905  0.32171  1.0000
  C   C126      1.0  0.62767  0.91395  0.27810  1.0000
  C   C127      1.0  0.63073  0.90070  0.28789  1.0000
  H   H68       1.0  0.63868  0.89719  0.25548  1.0000
  H   H69       1.0  0.61095  0.93114  0.16968  1.0000
  N   N19       1.0  0.63562  0.92223  0.22696  1.0000
  N   N20       1.0  0.60116  0.95382  0.12505  1.0000
  O   O37       1.0  0.63629  0.91863  0.14694  1.0000
  O   O38       1.0  0.59293  0.94673  0.08785  1.0000
  O   O39       1.0  0.64684  0.92280  0.25842  1.0000
  O   O40       1.0  0.61099  0.95441  0.07617  1.0000
  C   C128      1.0  0.59479  0.96867  0.27863  1.0000
  H   H70       1.0  0.58754  0.96879  0.23517  1.0000
  C   C129      1.0  0.95757  0.40018  0.29249  1.0000
  C   C130      1.0  0.94982  0.39719  0.21691  1.0000
  C   C131      1.0  0.93744  0.39171  0.22946  1.0000
  C   C132      1.0  0.93249  0.38915  0.31557  1.0000
  C   C133      1.0  0.91945  0.38501  0.32669  1.0000
  C   C134      1.0  0.91442  0.37385  0.28407  1.0000
  C   C135      1.0  0.90114  0.37083  0.29306  1.0000
  H   H71       1.0  0.89769  0.36280  0.26136  1.0000
  H   H72       1.0  0.93177  0.39012  0.17459  1.0000
  N   N21       1.0  0.92278  0.36576  0.23464  1.0000
  N   N22       1.0  0.95442  0.39995  0.12978  1.0000
  O   O41       1.0  0.91932  0.36488  0.15441  1.0000
  O   O42       1.0  0.94730  0.40791  0.09017  1.0000
  O   O43       1.0  0.92328  0.35463  0.26753  1.0000
  O   O44       1.0  0.95522  0.38991  0.08317  1.0000
  C   C136      1.0  0.96890  0.40721  0.28315  1.0000
  H   H73       1.0  0.96905  0.41418  0.23745  1.0000
  C   C137      1.0  0.04478  0.60184  0.28759  1.0000
  C   C138      1.0  0.05270  0.60438  0.21207  1.0000
  C   C139      1.0  0.06511  0.60980  0.22449  1.0000
  C   C140      1.0  0.06994  0.61269  0.31046  1.0000
  C   C141      1.0  0.08297  0.61683  0.32180  1.0000
  C   C142      1.0  0.08804  0.62788  0.27807  1.0000
  C   C143      1.0  0.10129  0.63098  0.28790  1.0000
  H   H74       1.0  0.10477  0.63892  0.25540  1.0000
  H   H75       1.0  0.07089  0.61109  0.16982  1.0000
  N   N23       1.0  0.07974  0.63580  0.22676  1.0000
  N   N24       1.0  0.04822  0.60126  0.12524  1.0000
  O   O45       1.0  0.08335  0.63645  0.14675  1.0000
  O   O46       1.0  0.05533  0.59304  0.08813  1.0000
  O   O47       1.0  0.07914  0.64702  0.25804  1.0000
  O   O48       1.0  0.04762  0.61108  0.07628  1.0000
  C   C144      1.0  0.03338  0.59491  0.27884  1.0000
  H   H76       1.0  0.03328  0.58764  0.23548  1.0000
  C   C145      1.0  0.61046  0.06301  0.28245  1.0000
  C   C146      1.0  0.60498  0.05070  0.29264  1.0000
  H   H77       1.0  0.61251  0.06623  0.21943  1.0000
  H   H78       1.0  0.60301  0.04545  0.23632  1.0000
  C   C147      1.0  0.62356  0.11077  0.32984  1.0000
  C   C148      1.0  0.61286  0.10552  0.28413  1.0000
  C   C149      1.0  0.60964  0.09242  0.29219  1.0000
  H   H79       1.0  0.60714  0.11125  0.24494  1.0000
  H   H80       1.0  0.60160  0.08915  0.25959  1.0000
  C   C150      1.0  0.62624  0.12390  0.32227  1.0000
  H   H81       1.0  0.61955  0.12964  0.29608  1.0000
  C   C151      1.0  0.38776  0.94044  0.27690  1.0000
  C   C152      1.0  0.39081  0.95363  0.28172  1.0000
  H   H82       1.0  0.38580  0.93649  0.21575  1.0000
  H   H83       1.0  0.39104  0.95889  0.22382  1.0000
  C   C153      1.0  0.37876  0.89229  0.33710  1.0000
  C   C154      1.0  0.38901  0.89796  0.28888  1.0000
  C   C155      1.0  0.39155  0.91125  0.29485  1.0000
  H   H84       1.0  0.39476  0.89246  0.24849  1.0000
  H   H85       1.0  0.39915  0.91491  0.25936  1.0000
  C   C156      1.0  0.37654  0.87907  0.33045  1.0000
  H   H86       1.0  0.38368  0.87342  0.30967  1.0000
  C   C157      1.0  0.06154  0.38781  0.27706  1.0000
  C   C158      1.0  0.04836  0.39089  0.28194  1.0000
  H   H87       1.0  0.06549  0.38586  0.21588  1.0000
  H   H88       1.0  0.04309  0.39114  0.22408  1.0000
  C   C159      1.0  0.10969  0.37876  0.33706  1.0000
  C   C160      1.0  0.10402  0.38902  0.28893  1.0000
  C   C161      1.0  0.09074  0.39157  0.29494  1.0000
  H   H89       1.0  0.10953  0.39477  0.24857  1.0000
  H   H90       1.0  0.08708  0.39918  0.25952  1.0000
  C   C162      1.0  0.12291  0.37654  0.33038  1.0000
  H   H91       1.0  0.12856  0.38367  0.30960  1.0000
  C   C163      1.0  0.93899  0.61052  0.28240  1.0000
  C   C164      1.0  0.95131  0.60505  0.29256  1.0000
  H   H92       1.0  0.93576  0.61258  0.21938  1.0000
  H   H93       1.0  0.95656  0.60312  0.23624  1.0000
  C   C165      1.0  0.89121  0.62356  0.32989  1.0000
  C   C166      1.0  0.89647  0.61287  0.28411  1.0000
  C   C167      1.0  0.90957  0.60966  0.29214  1.0000
  H   H94       1.0  0.89075  0.60716  0.24485  1.0000
  H   H95       1.0  0.91285  0.60164  0.25945  1.0000
  C   C168      1.0  0.87807  0.62623  0.32232  1.0000
  H   H96       1.0  0.87234  0.61954  0.29617  1.0000
  C   C169      1.0  0.46699  0.99630  0.29521  1.0000
  C   C170      1.0  0.47538  0.99586  0.22024  1.0000
  C   C171      1.0  0.48886  0.99694  0.23353  1.0000
  C   C172      1.0  0.49420  0.99843  0.31975  1.0000
  C   C173      1.0  0.50782  0.99825  0.33250  1.0000
  C   C174      1.0  0.51622  0.00706  0.28926  1.0000
  C   C175      1.0  0.52973  0.00585  0.30115  1.0000
  H   H97       1.0  0.53564  0.01224  0.26908  1.0000
  H   H98       1.0  0.49484  0.99618  0.17942  1.0000
  N   N25       1.0  0.51099  0.01711  0.23642  1.0000
  N   N26       1.0  0.47021  0.99424  0.13333  1.0000
  O   O49       1.0  0.51485  0.01646  0.15698  1.0000
  O   O50       1.0  0.47427  0.98409  0.09717  1.0000
  O   O51       1.0  0.51387  0.02800  0.26724  1.0000
  O   O52       1.0  0.47293  0.00363  0.08381  1.0000
  C   C176      1.0  0.45387  0.99415  0.28596  1.0000
  H   H99       1.0  0.45095  0.98704  0.24629  1.0000
  C   C177      1.0  0.00570  0.46711  0.29525  1.0000
  C   C178      1.0  0.00613  0.47549  0.22025  1.0000
  C   C179      1.0  0.00503  0.48897  0.23350  1.0000
  C   C180      1.0  0.00357  0.49431  0.31974  1.0000
  C   C181      1.0  0.00376  0.50793  0.33243  1.0000
  C   C182      1.0  0.99493  0.51634  0.28927  1.0000
  C   C183      1.0  0.99615  0.52985  0.30115  1.0000
  H   H100      1.0  0.98976  0.53576  0.26913  1.0000
  H   H101      1.0  0.00579  0.49495  0.17937  1.0000
  N   N27       1.0  0.98488  0.51111  0.23655  1.0000
  N   N28       1.0  0.00772  0.47031  0.13333  1.0000
  O   O53       1.0  0.98550  0.51496  0.15709  1.0000
  O   O54       1.0  0.01786  0.47438  0.09706  1.0000
  O   O55       1.0  0.97399  0.51399  0.26748  1.0000
  O   O56       1.0  0.99831  0.47302  0.08391  1.0000
  C   C184      1.0  0.00786  0.45398  0.28601  1.0000
  H   H102      1.0  0.01496  0.45106  0.24626  1.0000
  C   C185      1.0  0.24053  0.39727  0.27146  1.0000
  C   C186      1.0  0.25356  0.40038  0.28552  1.0000
  H   H103      1.0  0.23681  0.39816  0.20845  1.0000
  H   H104      1.0  0.25892  0.40333  0.23185  1.0000
  C   C187      1.0  0.19519  0.37670  0.29544  1.0000
  C   C188      1.0  0.20608  0.37285  0.24532  1.0000
  C   C189      1.0  0.21823  0.37840  0.26016  1.0000
  H   H105      1.0  0.20540  0.36561  0.19903  1.0000
  H   H106      1.0  0.22590  0.37495  0.22441  1.0000
  C   C190      1.0  0.18359  0.37013  0.28340  1.0000
  H   H107      1.0  0.18296  0.36398  0.23240  1.0000
  C   C191      1.0  0.76085  0.60476  0.27176  1.0000
  C   C192      1.0  0.74784  0.60159  0.28596  1.0000
  H   H108      1.0  0.76455  0.60394  0.20864  1.0000
  H   H109      1.0  0.74247  0.59865  0.23230  1.0000
  C   C193      1.0  0.80605  0.62560  0.29573  1.0000
  C   C194      1.0  0.79510  0.62945  0.24615  1.0000
  C   C195      1.0  0.78300  0.62380  0.26094  1.0000
  H   H110      1.0  0.79572  0.63674  0.20018  1.0000
  H   H111      1.0  0.77529  0.62725  0.22558  1.0000
  C   C196      1.0  0.81760  0.63223  0.28361  1.0000
  H   H112      1.0  0.81823  0.63831  0.23222  1.0000
  C   C197      1.0  0.60469  0.24109  0.27170  1.0000
  C   C198      1.0  0.60149  0.25409  0.28591  1.0000
  H   H113      1.0  0.60386  0.23739  0.20860  1.0000
  H   H114      1.0  0.59855  0.25946  0.23224  1.0000
  C   C199      1.0  0.62559  0.19592  0.29562  1.0000
  C   C200      1.0  0.62941  0.20686  0.24595  1.0000
  C   C201      1.0  0.62375  0.21895  0.26079  1.0000
  H   H115      1.0  0.63671  0.20626  0.20003  1.0000
  H   H116      1.0  0.62719  0.22668  0.22542  1.0000
  C   C202      1.0  0.63224  0.18438  0.28355  1.0000
  H   H117      1.0  0.63835  0.18376  0.23226  1.0000
  C   C203      1.0  0.39718  0.76141  0.27149  1.0000
  C   C204      1.0  0.40027  0.74837  0.28553  1.0000
  H   H118      1.0  0.39807  0.76513  0.20847  1.0000
  H   H119      1.0  0.40322  0.74301  0.23187  1.0000
  C   C205      1.0  0.37668  0.80678  0.29559  1.0000
  C   C206      1.0  0.37281  0.79589  0.24555  1.0000
  C   C207      1.0  0.37834  0.78373  0.26033  1.0000
  H   H120      1.0  0.36557  0.79658  0.19922  1.0000
  H   H121      1.0  0.37488  0.77606  0.22457  1.0000
  C   C208      1.0  0.37014  0.81839  0.28351  1.0000
  H   H122      1.0  0.36400  0.81903  0.23241  1.0000
  C   C209      1.0  0.74308  0.39777  0.30035  1.0000
  C   C210      1.0  0.75089  0.39326  0.22892  1.0000
  C   C211      1.0  0.76405  0.39041  0.24488  1.0000
  C   C212      1.0  0.76965  0.39194  0.33031  1.0000
  C   C213      1.0  0.78249  0.38770  0.34737  1.0000
  C   C214      1.0  0.79330  0.39215  0.29789  1.0000
  C   C215      1.0  0.80565  0.38675  0.31427  1.0000
  H   H123      1.0  0.81331  0.38994  0.27736  1.0000
  H   H124      1.0  0.76947  0.38673  0.19374  1.0000
  N   N29       1.0  0.79163  0.40207  0.23393  1.0000
  N   N30       1.0  0.74543  0.39160  0.14290  1.0000
  O   O57       1.0  0.79489  0.39843  0.15712  1.0000
  O   O58       1.0  0.74615  0.38008  0.11743  1.0000
  O   O59       1.0  0.79805  0.41192  0.25398  1.0000
  O   O60       1.0  0.75090  0.39864  0.08606  1.0000
  C   C216      1.0  0.72996  0.39983  0.28932  1.0000
  H   H125      1.0  0.72481  0.39338  0.25567  1.0000
  C   C217      1.0  0.25909  0.60417  0.30027  1.0000
  C   C218      1.0  0.25127  0.60863  0.22874  1.0000
  C   C219      1.0  0.23811  0.61150  0.24473  1.0000
  C   C220      1.0  0.23254  0.61005  0.33031  1.0000
  C   C221      1.0  0.21971  0.61435  0.34733  1.0000
  C   C222      1.0  0.20888  0.60989  0.29814  1.0000
  C   C223      1.0  0.19656  0.61536  0.31439  1.0000
  H   H126      1.0  0.18888  0.61216  0.27769  1.0000
  H   H127      1.0  0.23270  0.61516  0.19354  1.0000
  N   N31       1.0  0.21051  0.59991  0.23460  1.0000
  N   N32       1.0  0.25671  0.61021  0.14259  1.0000
  O   O61       1.0  0.20725  0.60349  0.15766  1.0000
  O   O62       1.0  0.25599  0.62171  0.11665  1.0000
  O   O63       1.0  0.20405  0.59010  0.25512  1.0000
  O   O64       1.0  0.25123  0.60313  0.08610  1.0000
  C   C224      1.0  0.27220  0.60209  0.28916  1.0000
  H   H128      1.0  0.27736  0.60854  0.25549  1.0000
  C   C225      1.0  0.39764  0.25885  0.30036  1.0000
  C   C226      1.0  0.39316  0.25104  0.22888  1.0000
  C   C227      1.0  0.39033  0.23787  0.24485  1.0000
  C   C228      1.0  0.39183  0.23229  0.33033  1.0000
  C   C229      1.0  0.38757  0.21945  0.34741  1.0000
  C   C230      1.0  0.39200  0.20863  0.29795  1.0000
  C   C231      1.0  0.38655  0.19630  0.31426  1.0000
  H   H129      1.0  0.38972  0.18863  0.27735  1.0000
  H   H130      1.0  0.38666  0.23245  0.19368  1.0000
  N   N33       1.0  0.40193  0.21028  0.23405  1.0000
  N   N34       1.0  0.39153  0.25649  0.14281  1.0000
  O   O65       1.0  0.39829  0.20703  0.15721  1.0000
  O   O66       1.0  0.38003  0.25575  0.11711  1.0000
  O   O67       1.0  0.41175  0.20382  0.25414  1.0000
  O   O68       1.0  0.39860  0.25103  0.08613  1.0000
  C   C232      1.0  0.39967  0.27198  0.28932  1.0000
  H   H131      1.0  0.39320  0.27712  0.25584  1.0000
  C   C233      1.0  0.60405  0.74285  0.30022  1.0000
  C   C234      1.0  0.60854  0.75066  0.22874  1.0000
  C   C235      1.0  0.61141  0.76381  0.24473  1.0000
  C   C236      1.0  0.60994  0.76939  0.33028  1.0000
  C   C237      1.0  0.61421  0.78223  0.34729  1.0000
  C   C238      1.0  0.60972  0.79305  0.29809  1.0000
  C   C239      1.0  0.61514  0.80539  0.31441  1.0000
  H   H132      1.0  0.61192  0.81306  0.27772  1.0000
  H   H133      1.0  0.61508  0.76923  0.19356  1.0000
  N   N35       1.0  0.59975  0.79139  0.23448  1.0000
  N   N36       1.0  0.61014  0.74521  0.14263  1.0000
  O   O69       1.0  0.60333  0.79467  0.15757  1.0000
  O   O70       1.0  0.62165  0.74592  0.11690  1.0000
  O   O71       1.0  0.58992  0.79782  0.25495  1.0000
  O   O72       1.0  0.60308  0.75070  0.08600  1.0000
  C   C240      1.0  0.60195  0.72974  0.28911  1.0000
  H   H134      1.0  0.60838  0.72458  0.25531  1.0000
  C   C241      1.0  0.30571  0.46692  0.29727  1.0000
  C   C242      1.0  0.30843  0.47461  0.22109  1.0000
  C   C243      1.0  0.31006  0.48808  0.23148  1.0000
  C   C244      1.0  0.30877  0.49415  0.31557  1.0000
  C   C245      1.0  0.30963  0.50783  0.32370  1.0000
  C   C246      1.0  0.30153  0.51623  0.27404  1.0000
  C   C247      1.0  0.30299  0.52975  0.28332  1.0000
  H   H135      1.0  0.29711  0.53563  0.24649  1.0000
  H   H136      1.0  0.31204  0.49354  0.17620  1.0000
  N   N37       1.0  0.29186  0.51105  0.21765  1.0000
  N   N38       1.0  0.30939  0.46875  0.13583  1.0000
  O   O73       1.0  0.29339  0.51450  0.13788  1.0000
  O   O74       1.0  0.30108  0.47312  0.08280  1.0000
  O   O75       1.0  0.28077  0.51434  0.24263  1.0000
  O   O76       1.0  0.32037  0.47041  0.10231  1.0000
  C   C248      1.0  0.30266  0.45398  0.28870  1.0000
  H   H137      1.0  0.29596  0.45154  0.24421  1.0000
  C   C249      1.0  0.69590  0.53488  0.29717  1.0000
  C   C250      1.0  0.69325  0.52718  0.22089  1.0000
  C   C251      1.0  0.69166  0.51370  0.23118  1.0000
  C   C252      1.0  0.69293  0.50764  0.31529  1.0000
  C   C253      1.0  0.69211  0.49396  0.32333  1.0000
  C   C254      1.0  0.70030  0.48559  0.27402  1.0000
  C   C255      1.0  0.69888  0.47207  0.28313  1.0000
  H   H138      1.0  0.70481  0.46622  0.24654  1.0000
  H   H139      1.0  0.68974  0.50824  0.17582  1.0000
  N   N39       1.0  0.71001  0.49082  0.21817  1.0000
  N   N40       1.0  0.69231  0.53304  0.13562  1.0000
  O   O77       1.0  0.70857  0.48739  0.13828  1.0000
  O   O78       1.0  0.70066  0.52871  0.08277  1.0000
  O   O79       1.0  0.72108  0.48756  0.24363  1.0000
  O   O80       1.0  0.68135  0.53135  0.10183  1.0000
  C   C256      1.0  0.69889  0.54783  0.28867  1.0000
  H   H140      1.0  0.70558  0.55030  0.24420  1.0000
  C   C257      1.0  0.53477  0.30604  0.29717  1.0000
  C   C258      1.0  0.52706  0.30869  0.22099  1.0000
  C   C259      1.0  0.51358  0.31026  0.23141  1.0000
  C   C260      1.0  0.50753  0.30896  0.31554  1.0000
  C   C261      1.0  0.49385  0.30975  0.32372  1.0000
  C   C262      1.0  0.48548  0.30159  0.27423  1.0000
  C   C263      1.0  0.47196  0.30298  0.28355  1.0000
  H   H141      1.0  0.46611  0.29706  0.24684  1.0000
  H   H142      1.0  0.50811  0.31220  0.17612  1.0000
  N   N41       1.0  0.49071  0.29192  0.21799  1.0000
  N   N42       1.0  0.53291  0.30967  0.13570  1.0000
  O   O81       1.0  0.48725  0.29341  0.13820  1.0000
  O   O82       1.0  0.52858  0.30132  0.08279  1.0000
  O   O83       1.0  0.48748  0.28083  0.24316  1.0000
  O   O84       1.0  0.53120  0.32063  0.10204  1.0000
  C   C264      1.0  0.54773  0.30305  0.28859  1.0000
  H   H143      1.0  0.55020  0.29637  0.24402  1.0000
  C   C265      1.0  0.46681  0.69623  0.29725  1.0000
  C   C266      1.0  0.47449  0.69353  0.22099  1.0000
  C   C267      1.0  0.48796  0.69188  0.23130  1.0000
  C   C268      1.0  0.49403  0.69314  0.31538  1.0000
  C   C269      1.0  0.50771  0.69226  0.32342  1.0000
  C   C270      1.0  0.51612  0.70038  0.27392  1.0000
  C   C271      1.0  0.52963  0.69890  0.28303  1.0000
  H   H144      1.0  0.53551  0.70478  0.24631  1.0000
  H   H145      1.0  0.49342  0.68991  0.17596  1.0000
  N   N43       1.0  0.51094  0.71010  0.21788  1.0000
  N   N44       1.0  0.46862  0.69259  0.13575  1.0000
  O   O85       1.0  0.51437  0.70861  0.13802  1.0000
  O   O86       1.0  0.47300  0.70090  0.08278  1.0000
  O   O87       1.0  0.51425  0.72116  0.24313  1.0000
  O   O88       1.0  0.47026  0.68161  0.10212  1.0000
  C   C272      1.0  0.45387  0.69928  0.28873  1.0000
  H   H146      1.0  0.45143  0.70599  0.24431  1.0000
  C   C273      1.0  0.35198  0.37272  0.28047  1.0000
  C   C274      1.0  0.34124  0.38088  0.29079  1.0000
  H   H147      1.0  0.35458  0.36992  0.21747  1.0000
  H   H148      1.0  0.33633  0.38373  0.23484  1.0000
  C   C275      1.0  0.39115  0.34257  0.32462  1.0000
  C   C276      1.0  0.39071  0.35477  0.28265  1.0000
  C   C277      1.0  0.37998  0.36293  0.29254  1.0000
  H   H149      1.0  0.39827  0.35788  0.24426  1.0000
  H   H150      1.0  0.38015  0.37174  0.26177  1.0000
  C   C278      1.0  0.40201  0.33476  0.31515  1.0000
  H   H151      1.0  0.41026  0.33876  0.29612  1.0000
  C   C279      1.0  0.64950  0.62900  0.28081  1.0000
  C   C280      1.0  0.66024  0.62085  0.29116  1.0000
  H   H152      1.0  0.64689  0.63179  0.21780  1.0000
  H   H153      1.0  0.66514  0.61797  0.23521  1.0000
  C   C281      1.0  0.61037  0.65917  0.32497  1.0000
  C   C282      1.0  0.61077  0.64695  0.28323  1.0000
  C   C283      1.0  0.62150  0.63879  0.29312  1.0000
  H   H154      1.0  0.60320  0.64383  0.24504  1.0000
  H   H155      1.0  0.62132  0.62996  0.26253  1.0000
  C   C284      1.0  0.59951  0.66699  0.31551  1.0000
  H   H156      1.0  0.59124  0.66298  0.29678  1.0000
  C   C285      1.0  0.62901  0.35232  0.28083  1.0000
  C   C286      1.0  0.62080  0.34162  0.29125  1.0000
  H   H157      1.0  0.63181  0.35490  0.21779  1.0000
  H   H158      1.0  0.61791  0.33672  0.23534  1.0000
  C   C287      1.0  0.65934  0.39134  0.32460  1.0000
  C   C288      1.0  0.64712  0.39096  0.28283  1.0000
  C   C289      1.0  0.63891  0.38027  0.29282  1.0000
  H   H159      1.0  0.64404  0.39854  0.24455  1.0000
  H   H160      1.0  0.63009  0.38049  0.26222  1.0000
  C   C290      1.0  0.66719  0.40217  0.31511  1.0000
  H   H161      1.0  0.66321  0.41043  0.29602  1.0000
  C   C291      1.0  0.37273  0.64984  0.28049  1.0000
  C   C292      1.0  0.38083  0.66062  0.29071  1.0000
  H   H162      1.0  0.36994  0.64722  0.21751  1.0000
  H   H163      1.0  0.38368  0.66553  0.23473  1.0000
  C   C293      1.0  0.34273  0.61056  0.32502  1.0000
  C   C294      1.0  0.35494  0.61103  0.28309  1.0000
  C   C295      1.0  0.36306  0.62180  0.29287  1.0000
  H   H164      1.0  0.35807  0.60348  0.24479  1.0000
  H   H165      1.0  0.37187  0.62165  0.26212  1.0000
  C   C296      1.0  0.33495  0.59967  0.31558  1.0000
  H   H166      1.0  0.33899  0.59142  0.29689  1.0000
  C   C297      1.0  0.06878  0.08622  0.32352  1.0000
  C   C298      1.0  0.07923  0.09468  0.33604  1.0000
  C   C299      1.0  0.09194  0.08994  0.34604  1.0000
  C   C300      1.0  0.09408  0.07650  0.34331  1.0000
  C   C301      1.0  0.08362  0.06790  0.33388  1.0000
  C   C302      1.0  0.07108  0.07282  0.32328  1.0000
  H   H167      1.0  0.10327  0.07296  0.34751  1.0000
  H   H168      1.0  0.06351  0.06658  0.31527  1.0000
  H   H169      1.0  0.07763  0.10441  0.33414  1.0000
  N   N45       1.0  0.05708  0.09111  0.31256  1.0000
  N   N46       1.0  0.10204  0.09781  0.34876  1.0000
  N   N47       1.0  0.08491  0.05528  0.32809  1.0000
  C   C303      1.0  0.93364  0.91547  0.32252  1.0000
  C   C304      1.0  0.92312  0.90711  0.33506  1.0000
  C   C305      1.0  0.91052  0.91200  0.34776  1.0000
  C   C306      1.0  0.90858  0.92546  0.34816  1.0000
  C   C307      1.0  0.91913  0.93398  0.33913  1.0000
  C   C308      1.0  0.93156  0.92891  0.32549  1.0000
  H   H170      1.0  0.89945  0.92908  0.35420  1.0000
  H   H171      1.0  0.93920  0.93505  0.31764  1.0000
  H   H172      1.0  0.92456  0.89737  0.33087  1.0000
  N   N48       1.0  0.94523  0.91043  0.30892  1.0000
  N   N49       1.0  0.90033  0.90425  0.35043  1.0000
  N   N50       1.0  0.91805  0.94666  0.33629  1.0000
  C   C309      1.0  0.91554  0.06833  0.32153  1.0000
  C   C310      1.0  0.90715  0.07885  0.33366  1.0000
  C   C311      1.0  0.91202  0.09142  0.34768  1.0000
  C   C312      1.0  0.92547  0.09336  0.34942  1.0000
  C   C313      1.0  0.93402  0.08282  0.34081  1.0000
  C   C314      1.0  0.92897  0.07040  0.32616  1.0000
  H   H173      1.0  0.92905  0.10249  0.35623  1.0000
  H   H174      1.0  0.93512  0.06276  0.31861  1.0000
  H   H175      1.0  0.89741  0.07742  0.32861  1.0000
  N   N51       1.0  0.91049  0.05677  0.30688  1.0000
  N   N52       1.0  0.90428  0.10161  0.35029  1.0000
  N   N53       1.0  0.94672  0.08390  0.33928  1.0000
  C   C315      1.0  0.08638  0.93326  0.32364  1.0000
  C   C316      1.0  0.09483  0.92280  0.33628  1.0000
  C   C317      1.0  0.09006  0.91010  0.34625  1.0000
  C   C318      1.0  0.07662  0.90798  0.34371  1.0000
  C   C319      1.0  0.06804  0.91846  0.33430  1.0000
  C   C320      1.0  0.07297  0.93100  0.32355  1.0000
  H   H176      1.0  0.07306  0.89880  0.34790  1.0000
  H   H177      1.0  0.06674  0.93857  0.31543  1.0000
  H   H178      1.0  0.10456  0.92439  0.33409  1.0000
  N   N54       1.0  0.09129  0.94495  0.31232  1.0000
  N   N55       1.0  0.09792  0.90000  0.34897  1.0000
  N   N56       1.0  0.05542  0.91717  0.32836  1.0000
  C   C321      1.0  0.18756  0.18764  0.33633  1.0000
  C   C322      1.0  0.18417  0.20083  0.33596  1.0000
  C   C323      1.0  0.19370  0.21057  0.33750  1.0000
  C   C324      1.0  0.20681  0.20692  0.33639  1.0000
  C   C325      1.0  0.21044  0.19381  0.33624  1.0000
  C   C326      1.0  0.20070  0.18427  0.33870  1.0000
  H   H179      1.0  0.21379  0.21390  0.33611  1.0000
  H   H180      1.0  0.20320  0.17474  0.34150  1.0000
  H   H181      1.0  0.17465  0.20336  0.33531  1.0000
  N   N57       1.0  0.17898  0.17814  0.33854  1.0000
  N   N58       1.0  0.19072  0.22306  0.33537  1.0000
  N   N59       1.0  0.22293  0.19085  0.33846  1.0000
  C   C327      1.0  0.81422  0.81501  0.33625  1.0000
  C   C328      1.0  0.81760  0.80182  0.33581  1.0000
  C   C329      1.0  0.80806  0.79209  0.33725  1.0000
  C   C330      1.0  0.79496  0.79575  0.33617  1.0000
  C   C331      1.0  0.79134  0.80887  0.33611  1.0000
  C   C332      1.0  0.80109  0.81840  0.33854  1.0000
  H   H182      1.0  0.78797  0.78878  0.33589  1.0000
  H   H183      1.0  0.79860  0.82793  0.34137  1.0000
  H   H184      1.0  0.82712  0.79928  0.33521  1.0000
  N   N60       1.0  0.82283  0.82448  0.33853  1.0000
  N   N61       1.0  0.81100  0.77960  0.33516  1.0000
  N   N62       1.0  0.77886  0.81182  0.33829  1.0000
  C   C333      1.0  0.81504  0.18769  0.33617  1.0000
  C   C334      1.0  0.80185  0.18431  0.33588  1.0000
  C   C335      1.0  0.79212  0.19385  0.33737  1.0000
  C   C336      1.0  0.79577  0.20695  0.33620  1.0000
  C   C337      1.0  0.80889  0.21057  0.33603  1.0000
  C   C338      1.0  0.81842  0.20083  0.33846  1.0000
  H   H185      1.0  0.78880  0.21394  0.33592  1.0000
  H   H186      1.0  0.82796  0.20332  0.34122  1.0000
  H   H187      1.0  0.79931  0.17480  0.33530  1.0000
  N   N63       1.0  0.82452  0.17909  0.33848  1.0000
  N   N64       1.0  0.77962  0.19091  0.33530  1.0000
  N   N65       1.0  0.81183  0.22306  0.33820  1.0000
  C   C339      1.0  0.18765  0.81438  0.33647  1.0000
  C   C340      1.0  0.20084  0.81777  0.33594  1.0000
  C   C341      1.0  0.21058  0.80824  0.33739  1.0000
  C   C342      1.0  0.20693  0.79513  0.33635  1.0000
  C   C343      1.0  0.19382  0.79149  0.33634  1.0000
  C   C344      1.0  0.18428  0.80124  0.33883  1.0000
  H   H188      1.0  0.21391  0.78814  0.33605  1.0000
  H   H189      1.0  0.17475  0.79874  0.34170  1.0000
  H   H190      1.0  0.20337  0.82728  0.33527  1.0000
  N   N66       1.0  0.17816  0.82296  0.33867  1.0000
  N   N67       1.0  0.22307  0.81121  0.33522  1.0000
  N   N68       1.0  0.19085  0.77901  0.33856  1.0000
  C   C345      1.0  0.43272  0.00049  0.32659  1.0000
  C   C346      1.0  0.42569  0.01209  0.32950  1.0000
  C   C347      1.0  0.41205  0.01209  0.33106  1.0000
  C   C348      1.0  0.40550  0.00016  0.33535  1.0000
  C   C349      1.0  0.41237  0.98836  0.33450  1.0000
  C   C350      1.0  0.42594  0.98868  0.32899  1.0000
  H   H191      1.0  0.39565  0.00009  0.33738  1.0000
  H   H192      1.0  0.43099  0.98020  0.32944  1.0000
  H   H193      1.0  0.43056  0.02067  0.32949  1.0000
  N   N69       1.0  0.44552  0.00121  0.32635  1.0000
  N   N70       1.0  0.40533  0.02307  0.33219  1.0000
  N   N71       1.0  0.40693  0.97674  0.33683  1.0000
  C   C351      1.0  0.56964  0.00151  0.33283  1.0000
  C   C352      1.0  0.57666  0.98986  0.32935  1.0000
  C   C353      1.0  0.59030  0.98978  0.32777  1.0000
  C   C354      1.0  0.59692  0.00166  0.33275  1.0000
  C   C355      1.0  0.59013  0.01346  0.33670  1.0000
  C   C356      1.0  0.57649  0.01323  0.33425  1.0000
  H   H194      1.0  0.60678  0.00172  0.33313  1.0000
  H   H195      1.0  0.57147  0.02172  0.33452  1.0000
  H   H196      1.0  0.57179  0.98130  0.32708  1.0000
  N   N72       1.0  0.55681  0.00198  0.33104  1.0000
  N   N73       1.0  0.59693  0.97876  0.32664  1.0000
  N   N74       1.0  0.59669  0.02451  0.33824  1.0000
  C   C357      1.0  0.00153  0.43284  0.32670  1.0000
  C   C358      1.0  0.98993  0.42580  0.32948  1.0000
  C   C359      1.0  0.98994  0.41216  0.33108  1.0000
  C   C360      1.0  0.00186  0.40562  0.33557  1.0000
  C   C361      1.0  0.01366  0.41249  0.33486  1.0000
  C   C362      1.0  0.01334  0.42606  0.32930  1.0000
  H   H197      1.0  0.00194  0.39577  0.33766  1.0000
  H   H198      1.0  0.02181  0.43112  0.32988  1.0000
  H   H199      1.0  0.98135  0.43067  0.32935  1.0000
  N   N75       1.0  0.00080  0.44563  0.32646  1.0000
  N   N76       1.0  0.97896  0.40545  0.33217  1.0000
  N   N77       1.0  0.02528  0.40706  0.33750  1.0000
  C   C363      1.0  0.00052  0.56975  0.33270  1.0000
  C   C364      1.0  0.01217  0.57678  0.32931  1.0000
  C   C365      1.0  0.01225  0.59041  0.32778  1.0000
  C   C366      1.0  0.00038  0.59703  0.33273  1.0000
  C   C367      1.0  0.98857  0.59024  0.33661  1.0000
  C   C368      1.0  0.98880  0.57660  0.33410  1.0000
  H   H200      1.0  0.00031  0.60690  0.33314  1.0000
  H   H201      1.0  0.98031  0.57158  0.33431  1.0000
  H   H202      1.0  0.02073  0.57190  0.32707  1.0000
  N   N78       1.0  0.00005  0.55693  0.33087  1.0000
  N   N79       1.0  0.02327  0.59705  0.32668  1.0000
  N   N80       1.0  0.97751  0.59680  0.33814  1.0000
  C   C369      1.0  0.29036  0.41448  0.34647  1.0000
  C   C370      1.0  0.29285  0.42781  0.34108  1.0000
  C   C371      1.0  0.30559  0.43262  0.33832  1.0000
  C   C372      1.0  0.31596  0.42383  0.34227  1.0000
  C   C373      1.0  0.31378  0.41040  0.34717  1.0000
  C   C374      1.0  0.30091  0.40585  0.34806  1.0000
  H   H203      1.0  0.32522  0.42724  0.34094  1.0000
  H   H204      1.0  0.29920  0.39615  0.34802  1.0000
  H   H205      1.0  0.28526  0.43412  0.34023  1.0000
  N   N81       1.0  0.27809  0.41076  0.34548  1.0000
  N   N82       1.0  0.30803  0.44523  0.33698  1.0000
  N   N83       1.0  0.32396  0.40254  0.34625  1.0000
  C   C375      1.0  0.71112  0.58731  0.34694  1.0000
  C   C376      1.0  0.70866  0.57398  0.34144  1.0000
  C   C377      1.0  0.69592  0.56915  0.33866  1.0000
  C   C378      1.0  0.68554  0.57793  0.34255  1.0000
  C   C379      1.0  0.68770  0.59136  0.34743  1.0000
  C   C380      1.0  0.70056  0.59593  0.34836  1.0000
  H   H206      1.0  0.67629  0.57450  0.34116  1.0000
  H   H207      1.0  0.70226  0.60563  0.34832  1.0000
  H   H208      1.0  0.71625  0.56768  0.34064  1.0000
  N   N84       1.0  0.72338  0.59106  0.34585  1.0000
  N   N85       1.0  0.69351  0.55655  0.33718  1.0000
  N   N86       1.0  0.67752  0.59921  0.34651  1.0000
  C   C381      1.0  0.58721  0.29081  0.34671  1.0000
  C   C382      1.0  0.57388  0.29327  0.34129  1.0000
  C   C383      1.0  0.56906  0.30601  0.33847  1.0000
  C   C384      1.0  0.57784  0.31639  0.34244  1.0000
  C   C385      1.0  0.59126  0.31422  0.34738  1.0000
  C   C386      1.0  0.59583  0.30136  0.34824  1.0000
  H   H209      1.0  0.57441  0.32564  0.34110  1.0000
  H   H210      1.0  0.60553  0.29967  0.34818  1.0000
  H   H211      1.0  0.56758  0.28568  0.34043  1.0000
  N   N87       1.0  0.59097  0.27855  0.34570  1.0000
  N   N88       1.0  0.55645  0.30842  0.33709  1.0000
  N   N89       1.0  0.59913  0.32440  0.34648  1.0000
  C   C387      1.0  0.41438  0.71157  0.34665  1.0000
  C   C388      1.0  0.42771  0.70909  0.34118  1.0000
  C   C389      1.0  0.43252  0.69635  0.33846  1.0000
  C   C390      1.0  0.42373  0.68597  0.34234  1.0000
  C   C391      1.0  0.41030  0.68815  0.34718  1.0000
  C   C392      1.0  0.40575  0.70102  0.34813  1.0000
  H   H212      1.0  0.42715  0.67672  0.34099  1.0000
  H   H213      1.0  0.39605  0.70272  0.34811  1.0000
  H   H214      1.0  0.43402  0.71667  0.34037  1.0000
  N   N90       1.0  0.41065  0.72384  0.34556  1.0000
  N   N91       1.0  0.44513  0.69391  0.33704  1.0000
  N   N92       1.0  0.40245  0.67796  0.34627  1.0000
  C   C393      1.0  0.71236  0.41400  0.31878  1.0000
  C   C394      1.0  0.71019  0.42740  0.32018  1.0000
  C   C395      1.0  0.69761  0.43251  0.32370  1.0000
  C   C396      1.0  0.68701  0.42392  0.32489  1.0000
  C   C397      1.0  0.68890  0.41040  0.32373  1.0000
  C   C398      1.0  0.70163  0.40559  0.32173  1.0000
  H   H215      1.0  0.67788  0.42756  0.32721  1.0000
  H   H216      1.0  0.70312  0.39585  0.32346  1.0000
  H   H217      1.0  0.71793  0.43354  0.31931  1.0000
  N   N93       1.0  0.72453  0.41003  0.32024  1.0000
  N   N94       1.0  0.69664  0.44528  0.32368  1.0000
  N   N95       1.0  0.67944  0.40173  0.32810  1.0000
  C   C399      1.0  0.28977  0.58787  0.31815  1.0000
  C   C400      1.0  0.29189  0.57447  0.31928  1.0000
  C   C401      1.0  0.30445  0.56932  0.32292  1.0000
  C   C402      1.0  0.31509  0.57787  0.32436  1.0000
  C   C403      1.0  0.31323  0.59140  0.32348  1.0000
  C   C404      1.0  0.30051  0.59624  0.32149  1.0000
  H   H218      1.0  0.32421  0.57421  0.32670  1.0000
  H   H219      1.0  0.29904  0.60599  0.32344  1.0000
  H   H220      1.0  0.28414  0.56834  0.31828  1.0000
  N   N96       1.0  0.27760  0.59187  0.31984  1.0000
  N   N97       1.0  0.30537  0.55654  0.32283  1.0000
  N   N98       1.0  0.32269  0.60007  0.32799  1.0000
  C   C405      1.0  0.41386  0.28958  0.31838  1.0000
  C   C406      1.0  0.42726  0.29174  0.31948  1.0000
  C   C407      1.0  0.43238  0.30431  0.32304  1.0000
  C   C408      1.0  0.42381  0.31493  0.32444  1.0000
  C   C409      1.0  0.41028  0.31304  0.32350  1.0000
  C   C410      1.0  0.40547  0.30032  0.32155  1.0000
  H   H221      1.0  0.42745  0.32406  0.32673  1.0000
  H   H222      1.0  0.39572  0.29883  0.32345  1.0000
  H   H223      1.0  0.43340  0.28400  0.31847  1.0000
  N   N99       1.0  0.40989  0.27741  0.31994  1.0000
  N   N100      1.0  0.44515  0.30527  0.32293  1.0000
  N   N101      1.0  0.40160  0.32250  0.32796  1.0000
  C   C411      1.0  0.58774  0.71217  0.31841  1.0000
  C   C412      1.0  0.57433  0.71004  0.31982  1.0000
  C   C413      1.0  0.56919  0.69748  0.32345  1.0000
  C   C414      1.0  0.57775  0.68685  0.32471  1.0000
  C   C415      1.0  0.59127  0.68871  0.32362  1.0000
  C   C416      1.0  0.59611  0.70143  0.32157  1.0000
  H   H224      1.0  0.57409  0.67772  0.32708  1.0000
  H   H225      1.0  0.60586  0.70290  0.32335  1.0000
  H   H226      1.0  0.56820  0.71780  0.31893  1.0000
  N   N102      1.0  0.59174  0.72434  0.32002  1.0000
  N   N103      1.0  0.55641  0.69654  0.32344  1.0000
  N   N104      1.0  0.59993  0.67925  0.32806  1.0000
  C   C417      1.0  0.15377  0.34164  0.33702  1.0000
  C   C418      1.0  0.14147  0.34738  0.34163  1.0000
  C   C419      1.0  0.14000  0.36093  0.34280  1.0000
  C   C420      1.0  0.15120  0.36877  0.34201  1.0000
  C   C421      1.0  0.16361  0.36323  0.33766  1.0000
  C   C422      1.0  0.16474  0.34968  0.33717  1.0000
  H   H227      1.0  0.15038  0.37858  0.34471  1.0000
  H   H228      1.0  0.17372  0.34559  0.33779  1.0000
  H   H229      1.0  0.13347  0.34159  0.34297  1.0000
  N   N105      1.0  0.15495  0.32886  0.33800  1.0000
  N   N106      1.0  0.12797  0.36544  0.34611  1.0000
  N   N107      1.0  0.17419  0.37050  0.33967  1.0000
  C   C423      1.0  0.84728  0.66090  0.33718  1.0000
  C   C424      1.0  0.85960  0.65520  0.34130  1.0000
  C   C425      1.0  0.86110  0.64166  0.34201  1.0000
  C   C426      1.0  0.84992  0.63378  0.34186  1.0000
  C   C427      1.0  0.83750  0.63929  0.33813  1.0000
  C   C428      1.0  0.83632  0.65284  0.33768  1.0000
  H   H230      1.0  0.85078  0.62398  0.34456  1.0000
  H   H231      1.0  0.82733  0.65690  0.33849  1.0000
  H   H232      1.0  0.86758  0.66101  0.34220  1.0000
  N   N108      1.0  0.84608  0.67367  0.33805  1.0000
  N   N109      1.0  0.87313  0.63714  0.34470  1.0000
  N   N110      1.0  0.82695  0.63198  0.34029  1.0000
  C   C429      1.0  0.66091  0.15469  0.33724  1.0000
  C   C430      1.0  0.65521  0.14237  0.34132  1.0000
  C   C431      1.0  0.64167  0.14087  0.34204  1.0000
  C   C432      1.0  0.63379  0.15205  0.34181  1.0000
  C   C433      1.0  0.63930  0.16447  0.33804  1.0000
  C   C434      1.0  0.65285  0.16565  0.33764  1.0000
  H   H233      1.0  0.62399  0.15120  0.34449  1.0000
  H   H234      1.0  0.65691  0.17464  0.33847  1.0000
  H   H235      1.0  0.66102  0.13439  0.34233  1.0000
  N   N111      1.0  0.67368  0.15589  0.33815  1.0000
  N   N112      1.0  0.63714  0.12885  0.34472  1.0000
  N   N113      1.0  0.63198  0.17502  0.34014  1.0000
  C   C435      1.0  0.34164  0.84821  0.33704  1.0000
  C   C436      1.0  0.34739  0.86051  0.34167  1.0000
  C   C437      1.0  0.36094  0.86198  0.34285  1.0000
  C   C438      1.0  0.36878  0.85077  0.34213  1.0000
  C   C439      1.0  0.36324  0.83837  0.33782  1.0000
  C   C440      1.0  0.34968  0.83723  0.33728  1.0000
  H   H236      1.0  0.37859  0.85159  0.34486  1.0000
  H   H237      1.0  0.34559  0.82825  0.33788  1.0000
  H   H238      1.0  0.34159  0.86850  0.34291  1.0000
  N   N114      1.0  0.32887  0.84702  0.33797  1.0000
  N   N115      1.0  0.36545  0.87401  0.34616  1.0000
  N   N116      1.0  0.37050  0.82778  0.33988  1.0000
  C   C441      1.0  0.84846  0.34162  0.33496  1.0000
  C   C442      1.0  0.86082  0.34725  0.33127  1.0000
  C   C443      1.0  0.86239  0.36079  0.33067  1.0000
  C   C444      1.0  0.85126  0.36873  0.33067  1.0000
  C   C445      1.0  0.83881  0.36328  0.33400  1.0000
  C   C446      1.0  0.83755  0.34974  0.33421  1.0000
  H   H239      1.0  0.85216  0.37853  0.32818  1.0000
  H   H240      1.0  0.82854  0.34574  0.33325  1.0000
  H   H241      1.0  0.86877  0.34140  0.33051  1.0000
  N   N117      1.0  0.84718  0.32886  0.33420  1.0000
  N   N118      1.0  0.87444  0.36524  0.32834  1.0000
  N   N119      1.0  0.82826  0.37057  0.33197  1.0000
  C   C447      1.0  0.15376  0.66055  0.33438  1.0000
  C   C448      1.0  0.14142  0.65489  0.32998  1.0000
  C   C449      1.0  0.13988  0.64135  0.32914  1.0000
  C   C450      1.0  0.15103  0.63344  0.32944  1.0000
  C   C451      1.0  0.16346  0.63892  0.33343  1.0000
  C   C452      1.0  0.16468  0.65246  0.33400  1.0000
  H   H242      1.0  0.15016  0.62363  0.32664  1.0000
  H   H243      1.0  0.17369  0.65648  0.33346  1.0000
  H   H244      1.0  0.13345  0.66072  0.32897  1.0000
  N   N120      1.0  0.15502  0.67332  0.33370  1.0000
  N   N121      1.0  0.12785  0.63685  0.32605  1.0000
  N   N122      1.0  0.17402  0.63164  0.33153  1.0000
  C   C453      1.0  0.34134  0.15355  0.33482  1.0000
  C   C454      1.0  0.34696  0.14119  0.33114  1.0000
  C   C455      1.0  0.36049  0.13960  0.33059  1.0000
  C   C456      1.0  0.36845  0.15072  0.33060  1.0000
  C   C457      1.0  0.36301  0.16318  0.33392  1.0000
  C   C458      1.0  0.34947  0.16445  0.33410  1.0000
  H   H245      1.0  0.37825  0.14982  0.32811  1.0000
  H   H246      1.0  0.34548  0.17347  0.33313  1.0000
  H   H247      1.0  0.34110  0.13325  0.33036  1.0000
  N   N123      1.0  0.32858  0.15486  0.33400  1.0000
  N   N124      1.0  0.36494  0.12755  0.32826  1.0000
  N   N125      1.0  0.37032  0.17372  0.33191  1.0000
  C   C459      1.0  0.66025  0.84826  0.33456  1.0000
  C   C460      1.0  0.65458  0.86059  0.33017  1.0000
  C   C461      1.0  0.64104  0.86211  0.32926  1.0000
  C   C462      1.0  0.63313  0.85096  0.32955  1.0000
  C   C463      1.0  0.63863  0.83853  0.33354  1.0000
  C   C464      1.0  0.65217  0.83732  0.33414  1.0000
  H   H248      1.0  0.62333  0.85182  0.32674  1.0000
  H   H249      1.0  0.65621  0.82832  0.33361  1.0000
  H   H250      1.0  0.66040  0.86856  0.32915  1.0000
  N   N126      1.0  0.67302  0.84702  0.33393  1.0000
  N   N127      1.0  0.63654  0.87414  0.32618  1.0000
  N   N128      1.0  0.63137  0.82796  0.33162  1.0000
  C   C465      1.0  0.11409  0.11623  0.38205  1.0000
  C   C466      1.0  0.11933  0.12299  0.45613  1.0000
  C   C467      1.0  0.12929  0.13209  0.44179  1.0000
  C   C468      1.0  0.13409  0.13468  0.35530  1.0000
  C   C469      1.0  0.14311  0.14481  0.34127  1.0000
  C   C470      1.0  0.15526  0.14516  0.38481  1.0000
  C   C471      1.0  0.16346  0.15592  0.37194  1.0000
  H   H251      1.0  0.17214  0.15604  0.40427  1.0000
  H   H252      1.0  0.13269  0.13725  0.49512  1.0000
  N   N129      1.0  0.15912  0.13465  0.43899  1.0000
  N   N130      1.0  0.11443  0.12072  0.54310  1.0000
  O   O89       1.0  0.16118  0.13812  0.51811  1.0000
  O   O90       1.0  0.10966  0.13076  0.57638  1.0000
  O   O91       1.0  0.16912  0.12936  0.40909  1.0000
  O   O92       1.0  0.12306  0.11658  0.59456  1.0000
  C   C472      1.0  0.10329  0.10848  0.39161  1.0000
  H   H253      1.0  0.09615  0.11162  0.43023  1.0000
  C   C473      1.0  0.88813  0.88592  0.38306  1.0000
  C   C474      1.0  0.88282  0.87917  0.45698  1.0000
  C   C475      1.0  0.87278  0.87017  0.44238  1.0000
  C   C476      1.0  0.86797  0.86767  0.35582  1.0000
  C   C477      1.0  0.85888  0.85761  0.34149  1.0000
  C   C478      1.0  0.84672  0.85733  0.38495  1.0000
  C   C479      1.0  0.83845  0.84663  0.37172  1.0000
  H   H254      1.0  0.82976  0.84656  0.40400  1.0000
  H   H255      1.0  0.86935  0.86500  0.49556  1.0000
  N   N131      1.0  0.84293  0.86784  0.43937  1.0000
  N   N132      1.0  0.88775  0.88135  0.54400  1.0000
  O   O93       1.0  0.84083  0.86433  0.51839  1.0000
  O   O94       1.0  0.89244  0.87125  0.57695  1.0000
  O   O95       1.0  0.83297  0.87321  0.40955  1.0000
  O   O96       1.0  0.87916  0.88553  0.59561  1.0000
  C   C480      1.0  0.89900  0.89355  0.39283  1.0000
  H   H256      1.0  0.90616  0.89028  0.43081  1.0000
  C   C481      1.0  0.88597  0.11382  0.38299  1.0000
  C   C482      1.0  0.87923  0.11912  0.45696  1.0000
  C   C483      1.0  0.87024  0.12918  0.44245  1.0000
  C   C484      1.0  0.86776  0.13401  0.35593  1.0000
  C   C485      1.0  0.85769  0.14309  0.34161  1.0000
  C   C486      1.0  0.85739  0.15524  0.38518  1.0000
  C   C487      1.0  0.84667  0.16349  0.37199  1.0000
  H   H257      1.0  0.84657  0.17218  0.40436  1.0000
  H   H258      1.0  0.86508  0.13260  0.49566  1.0000
  N   N133      1.0  0.86788  0.15903  0.43970  1.0000
  N   N134      1.0  0.88141  0.11417  0.54392  1.0000
  O   O97       1.0  0.86436  0.16111  0.51873  1.0000
  O   O98       1.0  0.87130  0.10948  0.57683  1.0000
  O   O99       1.0  0.87324  0.16901  0.41001  1.0000
  O   O100      1.0  0.88560  0.12274  0.59563  1.0000
  C   C488      1.0  0.89357  0.10292  0.39253  1.0000
  H   H259      1.0  0.89029  0.09576  0.43047  1.0000
  C   C489      1.0  0.11633  0.88793  0.38215  1.0000
  C   C490      1.0  0.12307  0.88266  0.45623  1.0000
  C   C491      1.0  0.13215  0.87268  0.44184  1.0000
  C   C492      1.0  0.13475  0.86790  0.35532  1.0000
  C   C493      1.0  0.14486  0.85887  0.34128  1.0000
  C   C494      1.0  0.14519  0.84671  0.38473  1.0000
  C   C495      1.0  0.15594  0.83850  0.37181  1.0000
  H   H260      1.0  0.15604  0.82981  0.40408  1.0000
  H   H261      1.0  0.13731  0.86928  0.49516  1.0000
  N   N135      1.0  0.13467  0.84286  0.43885  1.0000
  N   N136      1.0  0.12080  0.88755  0.54323  1.0000
  O   O101      1.0  0.13814  0.84078  0.51797  1.0000
  O   O102      1.0  0.13085  0.89230  0.57660  1.0000
  O   O103      1.0  0.12937  0.83287  0.40886  1.0000
  O   O104      1.0  0.11664  0.87892  0.59460  1.0000
  C   C496      1.0  0.10859  0.89872  0.39186  1.0000
  H   H262      1.0  0.11174  0.90587  0.43040  1.0000
  C   C497      1.0  0.08625  0.98465  0.37910  1.0000
  C   C498      1.0  0.08576  0.97140  0.36050  1.0000
  H   H263      1.0  0.08350  0.98783  0.44095  1.0000
  H   H264      1.0  0.08266  0.96529  0.40971  1.0000
  C   C499      1.0  0.09001  0.03402  0.36307  1.0000
  C   C500      1.0  0.09788  0.02550  0.41260  1.0000
  C   C501      1.0  0.09770  0.01218  0.39589  1.0000
  H   H265      1.0  0.10395  0.02894  0.46103  1.0000
  H   H266      1.0  0.10369  0.00633  0.43219  1.0000
  C   C502      1.0  0.09035  0.04718  0.38082  1.0000
  H   H267      1.0  0.09440  0.05036  0.43696  1.0000
  C   C503      1.0  0.91588  0.01735  0.37676  1.0000
  C   C504      1.0  0.91635  0.03057  0.35684  1.0000
  H   H268      1.0  0.91876  0.01429  0.43859  1.0000
  H   H269      1.0  0.91957  0.03678  0.40514  1.0000
  C   C505      1.0  0.91171  0.96790  0.36300  1.0000
  C   C506      1.0  0.90388  0.97650  0.41216  1.0000
  C   C507      1.0  0.90423  0.98983  0.39560  1.0000
  H   H270      1.0  0.89769  0.97314  0.46006  1.0000
  H   H271      1.0  0.89823  0.99573  0.43137  1.0000
  C   C508      1.0  0.91090  0.95469  0.37880  1.0000
  H   H272      1.0  0.90484  0.95136  0.42485  1.0000
  C   C509      1.0  0.01736  0.08617  0.38033  1.0000
  C   C510      1.0  0.03061  0.08565  0.36154  1.0000
  H   H273      1.0  0.01420  0.08353  0.44245  1.0000
  H   H274      1.0  0.03674  0.08262  0.41088  1.0000
  C   C511      1.0  0.96793  0.09065  0.36219  1.0000
  C   C512      1.0  0.97654  0.09848  0.41125  1.0000
  C   C513      1.0  0.98990  0.09795  0.39580  1.0000
  H   H275      1.0  0.97317  0.10482  0.45820  1.0000
  H   H276      1.0  0.99581  0.10396  0.43139  1.0000
  C   C514      1.0  0.95470  0.09169  0.37642  1.0000
  H   H277      1.0  0.95132  0.09852  0.41681  1.0000
  C   C515      1.0  0.98475  0.91575  0.37728  1.0000
  C   C516      1.0  0.97151  0.91619  0.35794  1.0000
  H   H278      1.0  0.98786  0.91861  0.43905  1.0000
  H   H279      1.0  0.96534  0.91936  0.40659  1.0000
  C   C517      1.0  0.03415  0.91213  0.36345  1.0000
  C   C518      1.0  0.02563  0.90425  0.41295  1.0000
  C   C519      1.0  0.01232  0.90437  0.39581  1.0000
  H   H280      1.0  0.02906  0.89823  0.46168  1.0000
  H   H281      1.0  0.00647  0.89838  0.43208  1.0000
  C   C520      1.0  0.04730  0.91184  0.38149  1.0000
  H   H282      1.0  0.05046  0.90789  0.43801  1.0000
  C   C521      1.0  0.16877  0.29054  0.39715  1.0000
  C   C522      1.0  0.16582  0.30364  0.38510  1.0000
  H   H283      1.0  0.17076  0.28729  0.46020  1.0000
  H   H284      1.0  0.16587  0.30955  0.43992  1.0000
  C   C523      1.0  0.17901  0.24224  0.36119  1.0000
  C   C524      1.0  0.16843  0.24806  0.40507  1.0000
  C   C525      1.0  0.16552  0.26116  0.39255  1.0000
  H   H285      1.0  0.16259  0.24277  0.44626  1.0000
  H   H286      1.0  0.15765  0.26491  0.42461  1.0000
  C   C526      1.0  0.18131  0.22911  0.37278  1.0000
  H   H287      1.0  0.17524  0.22409  0.41082  1.0000
  C   C527      1.0  0.83234  0.71199  0.39695  1.0000
  C   C528      1.0  0.83517  0.69886  0.38499  1.0000
  H   H288      1.0  0.83032  0.71526  0.45992  1.0000
  H   H289      1.0  0.83504  0.69296  0.43981  1.0000
  C   C529      1.0  0.82261  0.76037  0.36062  1.0000
  C   C530      1.0  0.83312  0.75446  0.40474  1.0000
  C   C531      1.0  0.83591  0.74134  0.39233  1.0000
  H   H290      1.0  0.83898  0.75970  0.44608  1.0000
  H   H291      1.0  0.84372  0.73750  0.42460  1.0000
  C   C532      1.0  0.82042  0.77352  0.37214  1.0000
  H   H292      1.0  0.82655  0.77850  0.40987  1.0000
  C   C533      1.0  0.71201  0.16961  0.39704  1.0000
  C   C534      1.0  0.69888  0.16678  0.38510  1.0000
  H   H293      1.0  0.71529  0.17163  0.46000  1.0000
  H   H294      1.0  0.69297  0.16693  0.43990  1.0000
  C   C535      1.0  0.76040  0.17929  0.36067  1.0000
  C   C536      1.0  0.75448  0.16880  0.40484  1.0000
  C   C537      1.0  0.74135  0.16601  0.39243  1.0000
  H   H295      1.0  0.75971  0.16293  0.44617  1.0000
  H   H296      1.0  0.73752  0.15820  0.42472  1.0000
  C   C538      1.0  0.77355  0.18147  0.37215  1.0000
  H   H297      1.0  0.77853  0.17533  0.40977  1.0000
  C   C539      1.0  0.29055  0.83319  0.39711  1.0000
  C   C540      1.0  0.30366  0.83613  0.38505  1.0000
  H   H298      1.0  0.28730  0.83120  0.46017  1.0000
  H   H299      1.0  0.30956  0.83611  0.43989  1.0000
  C   C541      1.0  0.24225  0.82292  0.36109  1.0000
  C   C542      1.0  0.24807  0.83350  0.40494  1.0000
  C   C543      1.0  0.26117  0.83641  0.39244  1.0000
  H   H300      1.0  0.24278  0.83934  0.44614  1.0000
  H   H301      1.0  0.26492  0.84428  0.42449  1.0000
  C   C544      1.0  0.22912  0.82061  0.37269  1.0000
  H   H302      1.0  0.22411  0.82668  0.41083  1.0000
  C   C545      1.0  0.83844  0.30883  0.37340  1.0000
  C   C546      1.0  0.83788  0.30046  0.44844  1.0000
  C   C547      1.0  0.83502  0.28725  0.43530  1.0000
  C   C548      1.0  0.83244  0.28223  0.34941  1.0000
  C   C549      1.0  0.82911  0.26902  0.33773  1.0000
  C   C550      1.0  0.81836  0.26335  0.38153  1.0000
  C   C551      1.0  0.81569  0.25009  0.36847  1.0000
  H   H303      1.0  0.80795  0.24616  0.40085  1.0000
  H   H304      1.0  0.83471  0.28127  0.48965  1.0000
  N   N137      1.0  0.81026  0.27107  0.43581  1.0000
  N   N138      1.0  0.84012  0.30542  0.53529  1.0000
  O   O105      1.0  0.80995  0.26703  0.51493  1.0000
  O   O106      1.0  0.83046  0.30393  0.58486  1.0000
  O   O107      1.0  0.79895  0.27142  0.40600  1.0000
  O   O108      1.0  0.84967  0.30011  0.57145  1.0000
  C   C552      1.0  0.83976  0.32202  0.38427  1.0000
  H   H305      1.0  0.83439  0.32628  0.43080  1.0000
  C   C553      1.0  0.16372  0.69336  0.37327  1.0000
  C   C554      1.0  0.16427  0.70173  0.44829  1.0000
  C   C555      1.0  0.16720  0.71493  0.43520  1.0000
  C   C556      1.0  0.16985  0.71994  0.34940  1.0000
  C   C557      1.0  0.17328  0.73313  0.33779  1.0000
  C   C558      1.0  0.18403  0.73874  0.38195  1.0000
  C   C559      1.0  0.18680  0.75198  0.36886  1.0000
  H   H306      1.0  0.19455  0.75587  0.40152  1.0000
  H   H307      1.0  0.16751  0.72091  0.48957  1.0000
  N   N139      1.0  0.19203  0.73098  0.43664  1.0000
  N   N140      1.0  0.16195  0.69679  0.53510  1.0000
  O   O109      1.0  0.19230  0.73503  0.51573  1.0000
  O   O110      1.0  0.17159  0.69824  0.58494  1.0000
  O   O111      1.0  0.20337  0.73054  0.40728  1.0000
  O   O112      1.0  0.15240  0.70214  0.57097  1.0000
  C   C560      1.0  0.16236  0.68017  0.38422  1.0000
  H   H308      1.0  0.16769  0.67591  0.43097  1.0000
  C   C561      1.0  0.30856  0.16366  0.37328  1.0000
  C   C562      1.0  0.30019  0.16424  0.44829  1.0000
  C   C563      1.0  0.28700  0.16719  0.43516  1.0000
  C   C564      1.0  0.28199  0.16984  0.34933  1.0000
  C   C565      1.0  0.26881  0.17328  0.33766  1.0000
  C   C566      1.0  0.26320  0.18403  0.38178  1.0000
  C   C567      1.0  0.24996  0.18681  0.36866  1.0000
  H   H309      1.0  0.24608  0.19456  0.40128  1.0000
  H   H310      1.0  0.28102  0.16752  0.48952  1.0000
  N   N141      1.0  0.27096  0.19204  0.43645  1.0000
  N   N142      1.0  0.30513  0.16194  0.53512  1.0000
  O   O113      1.0  0.26691  0.19231  0.51553  1.0000
  O   O114      1.0  0.30370  0.17159  0.58484  1.0000
  O   O115      1.0  0.27141  0.20337  0.40706  1.0000
  O   O116      1.0  0.29976  0.15241  0.57111  1.0000
  C   C568      1.0  0.32174  0.16227  0.38419  1.0000
  H   H311      1.0  0.32602  0.16761  0.43083  1.0000
  C   C569      1.0  0.69308  0.83837  0.37342  1.0000
  C   C570      1.0  0.70144  0.83785  0.44846  1.0000
  C   C571      1.0  0.71466  0.83502  0.43535  1.0000
  C   C572      1.0  0.71969  0.83243  0.34950  1.0000
  C   C573      1.0  0.73290  0.82910  0.33786  1.0000
  C   C574      1.0  0.73857  0.81836  0.38171  1.0000
  C   C575      1.0  0.75183  0.81569  0.36866  1.0000
  H   H312      1.0  0.75576  0.80795  0.40107  1.0000
  H   H313      1.0  0.72064  0.83472  0.48971  1.0000
  N   N143      1.0  0.73085  0.81026  0.43601  1.0000
  N   N144      1.0  0.69649  0.84011  0.53530  1.0000
  O   O117      1.0  0.73489  0.80996  0.51514  1.0000
  O   O118      1.0  0.69799  0.83047  0.58499  1.0000
  O   O119      1.0  0.73050  0.79895  0.40624  1.0000
  O   O120      1.0  0.70178  0.84968  0.57132  1.0000
  C   C576      1.0  0.67988  0.83968  0.38434  1.0000
  H   H314      1.0  0.67564  0.83432  0.43099  1.0000
  C   C577      1.0  0.39181  0.06165  0.39012  1.0000
  C   C578      1.0  0.39721  0.04932  0.37886  1.0000
  H   H315      1.0  0.39025  0.06497  0.45356  1.0000
  H   H316      1.0  0.39962  0.04416  0.43477  1.0000
  C   C579      1.0  0.37841  0.10938  0.34335  1.0000
  C   C580      1.0  0.38940  0.10417  0.38596  1.0000
  C   C581      1.0  0.39253  0.09105  0.37799  1.0000
  H   H317      1.0  0.39540  0.10995  0.42269  1.0000
  H   H318      1.0  0.40078  0.08781  0.40814  1.0000
  C   C582      1.0  0.37582  0.12253  0.35070  1.0000
  H   H319      1.0  0.38255  0.12824  0.37658  1.0000
  C   C583      1.0  0.61009  0.94012  0.38466  1.0000
  C   C584      1.0  0.60482  0.95250  0.37342  1.0000
  H   H320      1.0  0.61187  0.93688  0.44803  1.0000
  H   H321      1.0  0.60272  0.95779  0.42934  1.0000
  C   C585      1.0  0.62302  0.89227  0.33973  1.0000
  C   C586      1.0  0.61213  0.89756  0.38311  1.0000
  C   C587      1.0  0.60901  0.91068  0.37444  1.0000
  H   H322      1.0  0.60622  0.89186  0.42106  1.0000
  H   H323      1.0  0.60086  0.91400  0.40536  1.0000
  C   C588      1.0  0.62562  0.87913  0.34792  1.0000
  H   H324      1.0  0.61888  0.87344  0.37382  1.0000
  C   C589      1.0  0.94038  0.39197  0.38998  1.0000
  C   C590      1.0  0.95272  0.39735  0.37868  1.0000
  H   H325      1.0  0.93705  0.39042  0.45343  1.0000
  H   H326      1.0  0.95787  0.39976  0.43458  1.0000
  C   C591      1.0  0.89263  0.37868  0.34314  1.0000
  C   C592      1.0  0.89785  0.38967  0.38563  1.0000
  C   C593      1.0  0.91098  0.39276  0.37770  1.0000
  H   H327      1.0  0.89208  0.39569  0.42224  1.0000
  H   H328      1.0  0.91424  0.40101  0.40774  1.0000
  C   C594      1.0  0.87946  0.37612  0.35043  1.0000
  H   H329      1.0  0.87376  0.38288  0.37601  1.0000
  C   C595      1.0  0.06191  0.61027  0.38478  1.0000
  C   C596      1.0  0.04953  0.60497  0.37357  1.0000
  H   H330      1.0  0.06514  0.61206  0.44815  1.0000
  H   H331      1.0  0.04425  0.60288  0.42950  1.0000
  C   C597      1.0  0.10972  0.62331  0.33991  1.0000
  C   C598      1.0  0.10446  0.61242  0.38340  1.0000
  C   C599      1.0  0.09135  0.60926  0.37470  1.0000
  H   H332      1.0  0.11017  0.60654  0.42148  1.0000
  H   H333      1.0  0.08805  0.60111  0.40572  1.0000
  C   C600      1.0  0.12286  0.62595  0.34816  1.0000
  H   H334      1.0  0.12856  0.61924  0.37436  1.0000
  C   C601      1.0  0.60147  0.04599  0.37801  1.0000
  C   C602      1.0  0.60386  0.05385  0.45402  1.0000
  C   C603      1.0  0.60946  0.06620  0.44262  1.0000
  C   C604      1.0  0.61271  0.07101  0.35721  1.0000
  C   C605      1.0  0.61696  0.08402  0.34659  1.0000
  C   C606      1.0  0.62783  0.08908  0.39256  1.0000
  C   C607      1.0  0.63100  0.10232  0.38338  1.0000
  H   H335      1.0  0.63880  0.10580  0.41752  1.0000
  H   H336      1.0  0.61064  0.07196  0.49755  1.0000
  N   N145      1.0  0.63551  0.08077  0.44551  1.0000
  N   N146      1.0  0.60042  0.04939  0.54029  1.0000
  O   O121      1.0  0.63582  0.08438  0.52562  1.0000
  O   O122      1.0  0.61007  0.04865  0.59068  1.0000
  O   O123      1.0  0.64686  0.08014  0.41659  1.0000
  O   O124      1.0  0.59217  0.05658  0.57630  1.0000
  C   C608      1.0  0.59441  0.03464  0.38549  1.0000
  H   H337      1.0  0.58704  0.03455  0.42807  1.0000
  C   C609      1.0  0.39337  0.95957  0.36481  1.0000
  C   C610      1.0  0.39291  0.95203  0.44388  1.0000
  C   C611      1.0  0.38985  0.93874  0.43775  1.0000
  C   C612      1.0  0.38712  0.93279  0.35492  1.0000
  C   C613      1.0  0.38404  0.91938  0.34996  1.0000
  C   C614      1.0  0.37368  0.91384  0.39899  1.0000
  C   C615      1.0  0.37119  0.90044  0.39187  1.0000
  H   H338      1.0  0.36371  0.89663  0.42787  1.0000
  H   H339      1.0  0.38976  0.93334  0.49495  1.0000
  N   N147      1.0  0.36573  0.92184  0.45239  1.0000
  N   N148      1.0  0.39568  0.95785  0.52734  1.0000
  O   O125      1.0  0.36596  0.91845  0.53297  1.0000
  O   O126      1.0  0.38628  0.95700  0.57991  1.0000
  O   O127      1.0  0.35425  0.92174  0.42570  1.0000
  O   O128      1.0  0.40535  0.95277  0.56361  1.0000
  C   C616      1.0  0.39615  0.97262  0.36769  1.0000
  H   H340      1.0  0.39021  0.97849  0.40014  1.0000
  C   C617      1.0  0.04243  0.39344  0.36509  1.0000
  C   C618      1.0  0.04997  0.39296  0.44412  1.0000
  C   C619      1.0  0.06326  0.38988  0.43792  1.0000
  C   C620      1.0  0.06920  0.38715  0.35504  1.0000
  C   C621      1.0  0.08261  0.38405  0.35000  1.0000
  C   C622      1.0  0.08813  0.37368  0.39893  1.0000
  C   C623      1.0  0.10154  0.37118  0.39179  1.0000
  H   H341      1.0  0.10535  0.36370  0.42771  1.0000
  H   H342      1.0  0.06867  0.38977  0.49510  1.0000
  N   N149      1.0  0.08014  0.36574  0.45230  1.0000
  N   N150      1.0  0.04417  0.39573  0.52763  1.0000
  O   O129      1.0  0.08353  0.36595  0.53288  1.0000
  O   O130      1.0  0.04501  0.38631  0.58011  1.0000
  O   O131      1.0  0.08022  0.35426  0.42552  1.0000
  O   O132      1.0  0.04927  0.40538  0.56397  1.0000
  C   C624      1.0  0.02940  0.39625  0.36807  1.0000
  H   H343      1.0  0.02350  0.39024  0.39953  1.0000
  C   C625      1.0  0.95603  0.60155  0.37791  1.0000
  C   C626      1.0  0.94815  0.60392  0.45393  1.0000
  C   C627      1.0  0.93580  0.60951  0.44256  1.0000
  C   C628      1.0  0.93098  0.61275  0.35717  1.0000
  C   C629      1.0  0.91797  0.61699  0.34659  1.0000
  C   C630      1.0  0.91290  0.62784  0.39263  1.0000
  C   C631      1.0  0.89965  0.63100  0.38345  1.0000
  H   H344      1.0  0.89617  0.63880  0.41766  1.0000
  H   H345      1.0  0.93004  0.61065  0.49749  1.0000
  N   N151      1.0  0.92120  0.63553  0.44561  1.0000
  N   N152      1.0  0.95263  0.60047  0.54018  1.0000
  O   O133      1.0  0.91759  0.63582  0.52572  1.0000
  O   O134      1.0  0.95334  0.61013  0.59064  1.0000
  O   O135      1.0  0.92182  0.64688  0.41675  1.0000
  O   O136      1.0  0.94545  0.59221  0.57615  1.0000
  C   C632      1.0  0.96739  0.59451  0.38542  1.0000
  H   H346      1.0  0.96748  0.58714  0.42798  1.0000
  C   C633      1.0  0.48573  0.99898  0.39348  1.0000
  C   C634      1.0  0.47234  0.99796  0.38141  1.0000
  H   H347      1.0  0.48927  0.99989  0.45696  1.0000
  H   H348      1.0  0.46655  0.99803  0.43684  1.0000
  C   C635      1.0  0.53514  0.99599  0.35482  1.0000
  C   C636      1.0  0.52659  0.98740  0.39791  1.0000
  C   C637      1.0  0.51319  0.98851  0.38706  1.0000
  H   H349      1.0  0.53003  0.98005  0.43692  1.0000
  H   H350      1.0  0.50740  0.98186  0.41780  1.0000
  C   C638      1.0  0.54839  0.99426  0.36462  1.0000
  H   H351      1.0  0.55151  0.98669  0.39931  1.0000
  C   C639      1.0  0.00303  0.48585  0.39350  1.0000
  C   C640      1.0  0.00405  0.47245  0.38146  1.0000
  H   H352      1.0  0.00212  0.48939  0.45698  1.0000
  H   H353      1.0  0.00399  0.46667  0.43689  1.0000
  C   C641      1.0  0.00602  0.53526  0.35470  1.0000
  C   C642      1.0  0.01462  0.52670  0.39772  1.0000
  C   C643      1.0  0.01350  0.51331  0.38690  1.0000
  H   H354      1.0  0.02197  0.53014  0.43670  1.0000
  H   H355      1.0  0.02015  0.50751  0.41761  1.0000
  C   C644      1.0  0.00775  0.54851  0.36453  1.0000
  H   H356      1.0  0.01532  0.55162  0.39930  1.0000
  C   C645      1.0  0.25930  0.39890  0.37065  1.0000
  C   C646      1.0  0.25159  0.39441  0.44266  1.0000
  C   C647      1.0  0.23846  0.39133  0.42736  1.0000
  C   C648      1.0  0.23277  0.39261  0.34201  1.0000
  C   C649      1.0  0.22000  0.38806  0.32563  1.0000
  C   C650      1.0  0.20913  0.39225  0.37560  1.0000
  C   C651      1.0  0.19689  0.38655  0.35981  1.0000
  H   H357      1.0  0.18920  0.38957  0.39706  1.0000
  H   H358      1.0  0.23315  0.38762  0.47894  1.0000
  N   N153      1.0  0.21062  0.40221  0.43946  1.0000
  N   N154      1.0  0.25710  0.39296  0.52871  1.0000
  O   O137      1.0  0.20751  0.39849  0.51642  1.0000
  O   O138      1.0  0.25658  0.38147  0.55502  1.0000
  O   O139      1.0  0.20394  0.41189  0.41968  1.0000
  O   O140      1.0  0.25155  0.40000  0.58519  1.0000
  C   C652      1.0  0.27245  0.40099  0.38106  1.0000
  H   H359      1.0  0.27751  0.39486  0.41816  1.0000
  C   C653      1.0  0.74213  0.60297  0.37127  1.0000
  C   C654      1.0  0.74985  0.60743  0.44333  1.0000
  C   C655      1.0  0.76296  0.61057  0.42789  1.0000
  C   C656      1.0  0.76860  0.60940  0.34235  1.0000
  C   C657      1.0  0.78133  0.61405  0.32589  1.0000
  C   C658      1.0  0.79226  0.60986  0.37529  1.0000
  C   C659      1.0  0.80444  0.61566  0.35949  1.0000
  H   H360      1.0  0.81219  0.61263  0.39629  1.0000
  H   H361      1.0  0.76827  0.61428  0.47949  1.0000
  N   N155      1.0  0.79087  0.59981  0.43857  1.0000
  N   N156      1.0  0.74437  0.60878  0.52954  1.0000
  O   O141      1.0  0.79399  0.60344  0.51567  1.0000
  O   O142      1.0  0.74484  0.62026  0.55627  1.0000
  O   O143      1.0  0.79759  0.59019  0.41800  1.0000
  O   O144      1.0  0.74997  0.60172  0.58564  1.0000
  C   C660      1.0  0.72899  0.60081  0.38186  1.0000
  H   H362      1.0  0.72393  0.60688  0.41939  1.0000
  C   C661      1.0  0.60288  0.25981  0.37119  1.0000
  C   C662      1.0  0.60737  0.25209  0.44322  1.0000
  C   C663      1.0  0.61054  0.23899  0.42778  1.0000
  C   C664      1.0  0.60934  0.23334  0.34228  1.0000
  C   C665      1.0  0.61401  0.22061  0.32578  1.0000
  C   C666      1.0  0.60984  0.20969  0.37527  1.0000
  C   C667      1.0  0.61566  0.19751  0.35948  1.0000
  H   H363      1.0  0.61265  0.18977  0.39635  1.0000
  H   H364      1.0  0.61424  0.23368  0.47937  1.0000
  N   N157      1.0  0.59980  0.21107  0.43863  1.0000
  N   N158      1.0  0.60873  0.25759  0.52941  1.0000
  O   O145      1.0  0.60345  0.20795  0.51571  1.0000
  O   O146      1.0  0.62021  0.25713  0.55604  1.0000
  O   O147      1.0  0.59019  0.20433  0.41820  1.0000
  O   O148      1.0  0.60169  0.25198  0.58559  1.0000
  C   C668      1.0  0.60072  0.27294  0.38175  1.0000
  H   H365      1.0  0.60679  0.27802  0.41919  1.0000
  C   C669      1.0  0.39880  0.74263  0.37069  1.0000
  C   C670      1.0  0.39434  0.75036  0.44274  1.0000
  C   C671      1.0  0.39128  0.76349  0.42745  1.0000
  C   C672      1.0  0.39255  0.76917  0.34207  1.0000
  C   C673      1.0  0.38801  0.78195  0.32574  1.0000
  C   C674      1.0  0.39222  0.79282  0.37563  1.0000
  C   C675      1.0  0.38654  0.80506  0.35984  1.0000
  H   H366      1.0  0.38958  0.81275  0.39704  1.0000
  H   H367      1.0  0.38758  0.76881  0.47905  1.0000
  N   N159      1.0  0.40219  0.79132  0.43939  1.0000
  N   N160      1.0  0.39290  0.74485  0.52881  1.0000
  O   O149      1.0  0.39850  0.79443  0.51638  1.0000
  O   O150      1.0  0.38142  0.74538  0.55524  1.0000
  O   O151      1.0  0.41189  0.79798  0.41949  1.0000
  O   O152      1.0  0.39996  0.75039  0.58521  1.0000
  C   C676      1.0  0.40089  0.72948  0.38113  1.0000
  H   H368      1.0  0.39477  0.72443  0.41832  1.0000
  C   C677      1.0  0.76178  0.39655  0.40036  1.0000
  C   C678      1.0  0.74872  0.39945  0.38563  1.0000
  H   H369      1.0  0.76545  0.39762  0.46338  1.0000
  H   H370      1.0  0.74328  0.40243  0.43881  1.0000
  C   C679      1.0  0.80751  0.37695  0.37876  1.0000
  C   C680      1.0  0.79668  0.37285  0.42852  1.0000
  C   C681      1.0  0.78442  0.37810  0.41307  1.0000
  H   H371      1.0  0.79749  0.36562  0.47480  1.0000
  H   H372      1.0  0.77679  0.37447  0.44847  1.0000
  C   C682      1.0  0.81922  0.37062  0.39099  1.0000
  H   H373      1.0  0.82012  0.36482  0.44380  1.0000
  C   C683      1.0  0.24041  0.60548  0.40044  1.0000
  C   C684      1.0  0.25346  0.60256  0.38567  1.0000
  H   H374      1.0  0.23676  0.60447  0.46355  1.0000
  H   H375      1.0  0.25892  0.59960  0.43887  1.0000
  C   C685      1.0  0.19475  0.62523  0.37839  1.0000
  C   C686      1.0  0.20560  0.62933  0.42791  1.0000
  C   C687      1.0  0.21783  0.62401  0.41266  1.0000
  H   H376      1.0  0.20482  0.63659  0.47399  1.0000
  H   H377      1.0  0.22548  0.62763  0.44789  1.0000
  C   C688      1.0  0.18306  0.63160  0.39053  1.0000
  H   H378      1.0  0.18218  0.63740  0.44331  1.0000
  C   C689      1.0  0.39643  0.24016  0.40041  1.0000
  C   C690      1.0  0.39931  0.25322  0.38567  1.0000
  H   H379      1.0  0.39747  0.23650  0.46346  1.0000
  H   H380      1.0  0.40227  0.25868  0.43886  1.0000
  C   C691      1.0  0.37673  0.19446  0.37867  1.0000
  C   C692      1.0  0.37267  0.20530  0.42844  1.0000
  C   C693      1.0  0.37796  0.21754  0.41305  1.0000
  H   H381      1.0  0.36543  0.20452  0.47466  1.0000
  H   H382      1.0  0.37434  0.22518  0.44844  1.0000
  C   C694      1.0  0.37036  0.18277  0.39084  1.0000
  H   H383      1.0  0.36455  0.18190  0.44358  1.0000
  C   C695      1.0  0.60534  0.76152  0.40038  1.0000
  C   C696      1.0  0.60242  0.74848  0.38559  1.0000
  H   H384      1.0  0.60432  0.76519  0.46345  1.0000
  H   H385      1.0  0.59944  0.74303  0.43877  1.0000
  C   C697      1.0  0.62500  0.80723  0.37851  1.0000
  C   C698      1.0  0.62913  0.79638  0.42801  1.0000
  C   C699      1.0  0.62385  0.78413  0.41268  1.0000
  H   H386      1.0  0.63638  0.79718  0.47413  1.0000
  H   H387      1.0  0.62749  0.77649  0.44793  1.0000
  C   C700      1.0  0.63133  0.81893  0.39070  1.0000
  H   H388      1.0  0.63711  0.81984  0.44356  1.0000
  C   C701      1.0  0.30631  0.48632  0.39090  1.0000
  C   C702      1.0  0.30478  0.47292  0.38189  1.0000
  H   H389      1.0  0.30514  0.49039  0.45264  1.0000
  H   H390      1.0  0.30247  0.46764  0.43749  1.0000
  C   C703      1.0  0.31231  0.53522  0.34112  1.0000
  C   C704      1.0  0.32015  0.52669  0.39082  1.0000
  C   C705      1.0  0.31880  0.51325  0.38257  1.0000
  H   H391      1.0  0.32702  0.53018  0.43357  1.0000
  H   H392      1.0  0.32481  0.50743  0.41890  1.0000
  C   C706      1.0  0.31401  0.54851  0.34909  1.0000
  H   H393      1.0  0.32196  0.55187  0.37799  1.0000
  C   C707      1.0  0.69531  0.51546  0.39073  1.0000
  C   C708      1.0  0.69681  0.52887  0.38179  1.0000
  H   H394      1.0  0.69645  0.51139  0.45249  1.0000
  H   H395      1.0  0.69905  0.53416  0.43748  1.0000
  C   C709      1.0  0.68952  0.46657  0.34041  1.0000
  C   C710      1.0  0.68158  0.47506  0.38970  1.0000
  C   C711      1.0  0.68289  0.48850  0.38164  1.0000
  H   H396      1.0  0.67468  0.47153  0.43204  1.0000
  H   H397      1.0  0.67682  0.49429  0.41767  1.0000
  C   C712      1.0  0.68785  0.45328  0.34811  1.0000
  H   H398      1.0  0.67978  0.44989  0.37505  1.0000
  C   C713      1.0  0.51537  0.30656  0.39088  1.0000
  C   C714      1.0  0.52879  0.30509  0.38183  1.0000
  H   H399      1.0  0.51131  0.30539  0.45264  1.0000
  H   H400      1.0  0.53407  0.30282  0.43743  1.0000
  C   C715      1.0  0.46645  0.31229  0.34121  1.0000
  C   C716      1.0  0.47495  0.32020  0.39074  1.0000
  C   C717      1.0  0.48839  0.31892  0.38245  1.0000
  H   H401      1.0  0.47142  0.32706  0.43337  1.0000
  H   H402      1.0  0.49418  0.32497  0.41865  1.0000
  C   C718      1.0  0.45316  0.31393  0.34918  1.0000
  H   H403      1.0  0.44976  0.32187  0.37804  1.0000
  C   C719      1.0  0.48622  0.69558  0.39080  1.0000
  C   C720      1.0  0.47282  0.69714  0.38185  1.0000
  H   H404      1.0  0.49030  0.69672  0.45253  1.0000
  H   H405      1.0  0.46755  0.69942  0.43751  1.0000
  C   C721      1.0  0.53510  0.68953  0.34048  1.0000
  C   C722      1.0  0.52657  0.68166  0.38998  1.0000
  C   C723      1.0  0.51313  0.68303  0.38191  1.0000
  H   H406      1.0  0.53007  0.67476  0.43245  1.0000
  H   H407      1.0  0.50731  0.67701  0.41809  1.0000
  C   C724      1.0  0.54838  0.68781  0.34822  1.0000
  H   H408      1.0  0.55174  0.67975  0.37555  1.0000
  C   C725      1.0  0.33696  0.38463  0.37666  1.0000
  C   C726      1.0  0.34378  0.38016  0.45286  1.0000
  C   C727      1.0  0.35463  0.37202  0.44124  1.0000
  C   C728      1.0  0.35873  0.36799  0.35563  1.0000
  C   C729      1.0  0.36931  0.35929  0.34562  1.0000
  C   C730      1.0  0.36954  0.34702  0.38795  1.0000
  C   C731      1.0  0.38040  0.33887  0.37697  1.0000
  H   H409      1.0  0.38040  0.33012  0.40846  1.0000
  H   H410      1.0  0.35951  0.36893  0.49663  1.0000
  N   N161      1.0  0.35877  0.34290  0.43867  1.0000
  N   N162      1.0  0.33967  0.38388  0.53939  1.0000
  O   O153      1.0  0.36180  0.34064  0.51843  1.0000
  O   O154      1.0  0.33661  0.37427  0.58586  1.0000
  O   O155      1.0  0.35373  0.33294  0.40601  1.0000
  O   O156      1.0  0.34828  0.39010  0.57974  1.0000
  C   C732      1.0  0.32565  0.39164  0.38562  1.0000
  H   H411      1.0  0.31883  0.38815  0.42551  1.0000
  C   C733      1.0  0.66453  0.61712  0.37706  1.0000
  C   C734      1.0  0.65773  0.62162  0.45326  1.0000
  C   C735      1.0  0.64688  0.62975  0.44161  1.0000
  C   C736      1.0  0.64277  0.63375  0.35596  1.0000
  C   C737      1.0  0.63219  0.64246  0.34593  1.0000
  C   C738      1.0  0.63199  0.65475  0.38799  1.0000
  C   C739      1.0  0.62113  0.66289  0.37702  1.0000
  H   H412      1.0  0.62115  0.67166  0.40832  1.0000
  H   H413      1.0  0.64201  0.63287  0.49699  1.0000
  N   N163      1.0  0.64279  0.65889  0.43841  1.0000
  N   N164      1.0  0.66185  0.61792  0.53981  1.0000
  O   O157      1.0  0.63978  0.66118  0.51818  1.0000
  O   O158      1.0  0.66492  0.62754  0.58610  1.0000
  O   O159      1.0  0.64782  0.66882  0.40546  1.0000
  O   O160      1.0  0.65324  0.61172  0.58033  1.0000
  C   C740      1.0  0.67583  0.61010  0.38605  1.0000
  H   H414      1.0  0.68265  0.61358  0.42607  1.0000
  C   C741      1.0  0.61705  0.33736  0.37718  1.0000
  C   C742      1.0  0.62157  0.34416  0.45333  1.0000
  C   C743      1.0  0.62976  0.35497  0.44160  1.0000
  C   C744      1.0  0.63378  0.35905  0.35592  1.0000
  C   C745      1.0  0.64253  0.36958  0.34579  1.0000
  C   C746      1.0  0.65482  0.36974  0.38790  1.0000
  C   C747      1.0  0.66301  0.38057  0.37682  1.0000
  H   H415      1.0  0.67178  0.38053  0.40817  1.0000
  H   H416      1.0  0.63290  0.35984  0.49693  1.0000
  N   N165      1.0  0.65891  0.35895  0.43850  1.0000
  N   N166      1.0  0.61786  0.34007  0.53991  1.0000
  O   O161      1.0  0.66120  0.36197  0.51824  1.0000
  O   O162      1.0  0.62747  0.33696  0.58623  1.0000
  O   O163      1.0  0.66883  0.35387  0.40567  1.0000
  O   O164      1.0  0.61170  0.34871  0.58037  1.0000
  C   C748      1.0  0.61000  0.32608  0.38625  1.0000
  H   H417      1.0  0.61345  0.31927  0.42636  1.0000
  C   C749      1.0  0.38456  0.66493  0.37655  1.0000
  C   C750      1.0  0.38012  0.65811  0.45282  1.0000
  C   C751      1.0  0.37203  0.64723  0.44128  1.0000
  C   C752      1.0  0.36802  0.64309  0.35570  1.0000
  C   C753      1.0  0.35936  0.63247  0.34579  1.0000
  C   C754      1.0  0.34709  0.63221  0.38806  1.0000
  C   C755      1.0  0.33899  0.62131  0.37718  1.0000
  H   H418      1.0  0.33023  0.62128  0.40862  1.0000
  H   H419      1.0  0.36895  0.64234  0.49671  1.0000
  N   N167      1.0  0.34292  0.64297  0.43859  1.0000
  N   N168      1.0  0.38383  0.66225  0.53931  1.0000
  O   O165      1.0  0.34067  0.63995  0.51839  1.0000
  O   O166      1.0  0.37421  0.66527  0.58576  1.0000
  O   O167      1.0  0.33295  0.64796  0.40581  1.0000
  O   O168      1.0  0.39008  0.65367  0.57972  1.0000
  C   C756      1.0  0.39154  0.67627  0.38543  1.0000
  H   H420      1.0  0.38802  0.68309  0.42524  1.0000
