data_image0
_chemical_formula_structural       C4HNO2C4HNO2C4HNO2C4HNO2C4HNO2C4HNO2C2H2C2H2C2H2C2H2C2H2C2H2C2H2C2H2C2H2C2H2C2H2C2H2C4HNO2C4HNO2C4HNO2C4HNO2C4HNO2C4HNO2C2H2C2H2C2H2C2H2C2H2C2H2C2H2C2H2C2H2C2H2C2H2C2H2C4HNO2C4HNO2C4HNO2C4HNO2C4HNO2C4HNO2C2H2C2H2C2H2C2H2C2H2C2H2C4HNO2C4HNO2C4HNO2C4HNO2C4HNO2C4HNO2CNCNCNCNCNCNCNCNCNCNCNCNCNCNCNCNCNCNCNCNCNCNCNCNCNCNCNCNCNCNCNCNCNCNCNCNCNCNCNCNCNCNCNCNCNCNCNCNCNCNCNCNCNCNCNCNCNCNCNCNCNCNCNCNCNCNCNCNCNCNCNCNCNCNCNCNCNCNCNCNCNCNCNCNCNCNCNCNCNCNCNCNCNCNCNCNCNCNCNCNCNCNCNCNCNCNCNCNC2H2C2H2C2H2C2H2C2H2C2H2C4HNO2C4HNO2C4HNO2C4HNO2C4HNO2C4HNO2C4HNO2C4HNO2C4HNO2C4HNO2C4HNO2C4HNO2C2H2C2H2C2H2C2H2C2H2C2H2C4HNO2C4HNO2C4HNO2C4HNO2C4HNO2C4HNO2C4HNO2C4HNO2C4HNO2C4HNO2C4HNO2C4HNO2C2H2C2H2C2H2C2H2C2H2C2H2C4HNO2C4HNO2C4HNO2C4HNO2C4HNO2C4HNO2C2H2C2H2C2H2C2H2C2H2C2H2
_chemical_formula_sum              "C432 H162 N162 O108"
_cell_length_a       67.1237
_cell_length_b       67.1238
_cell_length_c       14.889
_cell_angle_alpha    90
_cell_angle_beta     90
_cell_angle_gamma    120

_space_group_name_H-M_alt    "P 1"
_space_group_IT_number       1

loop_
  _space_group_symop_operation_xyz
  'x, y, z'

loop_
  _atom_site_type_symbol
  _atom_site_label
  _atom_site_symmetry_multiplicity
  _atom_site_fract_x
  _atom_site_fract_y
  _atom_site_fract_z
  _atom_site_occupancy
  C   C1        1.0  0.13371  0.32275  0.27025  1.0000
  C   C2        1.0  0.14466  0.34247  0.21465  1.0000
  C   C3        1.0  0.14185  0.36178  0.22808  1.0000
  C   C4        1.0  0.12821  0.36194  0.30066  1.0000
  H   H1        1.0  0.15611  0.34354  0.16678  1.0000
  N   N1        1.0  0.15409  0.38187  0.17509  1.0000
  O   O1        1.0  0.17549  0.38994  0.17837  1.0000
  O   O2        1.0  0.14752  0.37778  0.09491  1.0000
  C   C5        1.0  0.68644  0.81302  0.27068  1.0000
  C   C6        1.0  0.66671  0.80435  0.21520  1.0000
  C   C7        1.0  0.64738  0.78223  0.22850  1.0000
  C   C8        1.0  0.64725  0.76828  0.30056  1.0000
  H   H2        1.0  0.66561  0.81480  0.16774  1.0000
  N   N2        1.0  0.62731  0.77445  0.17543  1.0000
  O   O3        1.0  0.61925  0.78780  0.17897  1.0000
  O   O4        1.0  0.63143  0.77205  0.09520  1.0000
  C   C9        1.0  0.19630  0.87536  0.27016  1.0000
  C   C10       1.0  0.20508  0.86443  0.21458  1.0000
  C   C11       1.0  0.22724  0.86734  0.22787  1.0000
  C   C12       1.0  0.24109  0.88103  0.30033  1.0000
  H   H3        1.0  0.19470  0.85294  0.16683  1.0000
  N   N3        1.0  0.23513  0.85514  0.17479  1.0000
  O   O5        1.0  0.22184  0.83372  0.17811  1.0000
  O   O6        1.0  0.23756  0.86170  0.09461  1.0000
  C   C13       1.0  0.87711  0.68465  0.27023  1.0000
  C   C14       1.0  0.86604  0.66506  0.21399  1.0000
  C   C15       1.0  0.86878  0.64567  0.22627  1.0000
  C   C16       1.0  0.88256  0.64534  0.29799  1.0000
  H   H4        1.0  0.85452  0.66411  0.16671  1.0000
  N   N4        1.0  0.85652  0.62577  0.17233  1.0000
  O   O7        1.0  0.83512  0.61773  0.17566  1.0000
  O   O8        1.0  0.86314  0.63015  0.09228  1.0000
  C   C17       1.0  0.32459  0.19459  0.27012  1.0000
  C   C18       1.0  0.34430  0.20335  0.21456  1.0000
  C   C19       1.0  0.36361  0.22547  0.22799  1.0000
  C   C20       1.0  0.36377  0.23928  0.30055  1.0000
  H   H5        1.0  0.34538  0.19298  0.16670  1.0000
  N   N5        1.0  0.38371  0.23333  0.17501  1.0000
  O   O9        1.0  0.39178  0.22000  0.17831  1.0000
  O   O10       1.0  0.37962  0.23581  0.09483  1.0000
  C   C21       1.0  0.81466  0.13178  0.26949  1.0000
  C   C22       1.0  0.80593  0.14276  0.21393  1.0000
  C   C23       1.0  0.78380  0.13994  0.22739  1.0000
  C   C24       1.0  0.76992  0.12616  0.29968  1.0000
  H   H6        1.0  0.81634  0.15431  0.16642  1.0000
  N   N6        1.0  0.77598  0.15222  0.17444  1.0000
  O   O11       1.0  0.78931  0.17363  0.17800  1.0000
  O   O12       1.0  0.77355  0.14572  0.09417  1.0000
  C   C25       1.0  0.35731  0.12535  0.26283  1.0000
  C   C26       1.0  0.33826  0.12769  0.23950  1.0000
  H   H7        1.0  0.36997  0.12998  0.21564  1.0000
  H   H8        1.0  0.33748  0.13303  0.17584  1.0000
  C   C27       1.0  0.77521  0.65242  0.26426  1.0000
  C   C28       1.0  0.79647  0.67165  0.24100  1.0000
  H   H9        1.0  0.76690  0.64007  0.21612  1.0000
  H   H10       1.0  0.80240  0.67281  0.17677  1.0000
  C   C29       1.0  0.88375  0.23376  0.26215  1.0000
  C   C30       1.0  0.88130  0.21232  0.23899  1.0000
  H   H11       1.0  0.87894  0.24172  0.21523  1.0000
  H   H12       1.0  0.87571  0.20608  0.17565  1.0000
  C   C31       1.0  0.65417  0.88258  0.26362  1.0000
  C   C32       1.0  0.67335  0.88051  0.23985  1.0000
  H   H13       1.0  0.64171  0.87845  0.21588  1.0000
  H   H14       1.0  0.67437  0.87564  0.17563  1.0000
  C   C33       1.0  0.23567  0.35546  0.26286  1.0000
  C   C34       1.0  0.21427  0.33642  0.23954  1.0000
  H   H15       1.0  0.24371  0.36813  0.21570  1.0000
  H   H16       1.0  0.20814  0.33565  0.17591  1.0000
  C   C35       1.0  0.12697  0.77342  0.26204  1.0000
  C   C36       1.0  0.12911  0.79473  0.23877  1.0000
  H   H17       1.0  0.13131  0.76525  0.21437  1.0000
  H   H18       1.0  0.13422  0.80079  0.17489  1.0000
  C   C37       1.0  0.21202  0.43968  0.39306  1.0000
  C   C38       1.0  0.23323  0.43978  0.39554  1.0000
  H   H19       1.0  0.21063  0.45074  0.34967  1.0000
  H   H20       1.0  0.24627  0.45101  0.35452  1.0000
  C   C39       1.0  0.56941  0.77425  0.39145  1.0000
  C   C40       1.0  0.56925  0.79532  0.39439  1.0000
  H   H21       1.0  0.55837  0.76182  0.34793  1.0000
  H   H22       1.0  0.55813  0.79724  0.35313  1.0000
  C   C41       1.0  0.23527  0.79732  0.39270  1.0000
  C   C42       1.0  0.21419  0.77608  0.39508  1.0000
  H   H23       1.0  0.24772  0.79877  0.34914  1.0000
  H   H24       1.0  0.21241  0.76309  0.35384  1.0000
  C   C43       1.0  0.79868  0.56725  0.38890  1.0000
  C   C44       1.0  0.77745  0.56710  0.39222  1.0000
  H   H25       1.0  0.80009  0.55635  0.34470  1.0000
  H   H26       1.0  0.76445  0.55612  0.35056  1.0000
  C   C45       1.0  0.44153  0.23326  0.39287  1.0000
  C   C46       1.0  0.44164  0.21215  0.39535  1.0000
  H   H27       1.0  0.45258  0.24570  0.34944  1.0000
  H   H28       1.0  0.45286  0.21034  0.35429  1.0000
  C   C47       1.0  0.77626  0.21016  0.39219  1.0000
  C   C48       1.0  0.79733  0.23140  0.39504  1.0000
  H   H29       1.0  0.76372  0.20882  0.34943  1.0000
  H   H30       1.0  0.79913  0.24451  0.35451  1.0000
  C   C49       1.0  0.10613  0.46084  0.31068  1.0000
  C   C50       1.0  0.09807  0.44014  0.26215  1.0000
  C   C51       1.0  0.10991  0.42757  0.26206  1.0000
  C   C52       1.0  0.13033  0.43531  0.31438  1.0000
  H   H31       1.0  0.08311  0.43384  0.22623  1.0000
  N   N7        1.0  0.10114  0.40730  0.20944  1.0000
  O   O13       1.0  0.08121  0.39231  0.23322  1.0000
  O   O14       1.0  0.10093  0.41140  0.12718  1.0000
  C   C53       1.0  0.54848  0.64714  0.31086  1.0000
  C   C54       1.0  0.56924  0.65979  0.26270  1.0000
  C   C55       1.0  0.58179  0.68420  0.26252  1.0000
  C   C56       1.0  0.57397  0.69688  0.31439  1.0000
  H   H32       1.0  0.57559  0.65113  0.22707  1.0000
  N   N8        1.0  0.60212  0.69570  0.21020  1.0000
  O   O15       1.0  0.61709  0.69078  0.23444  1.0000
  O   O16       1.0  0.59810  0.69136  0.12791  1.0000
  C   C57       1.0  0.36217  0.90336  0.31105  1.0000
  C   C58       1.0  0.34954  0.91144  0.26258  1.0000
  C   C59       1.0  0.32513  0.89960  0.26244  1.0000
  C   C60       1.0  0.31245  0.87917  0.31469  1.0000
  H   H33       1.0  0.35820  0.92640  0.22671  1.0000
  N   N9        1.0  0.31363  0.90838  0.20985  1.0000
  O   O17       1.0  0.31858  0.92830  0.23369  1.0000
  O   O18       1.0  0.31796  0.90861  0.12758  1.0000
  C   C61       1.0  0.90540  0.54687  0.31101  1.0000
  C   C62       1.0  0.91356  0.56766  0.26305  1.0000
  C   C63       1.0  0.90166  0.58018  0.26251  1.0000
  C   C64       1.0  0.88106  0.57228  0.31385  1.0000
  H   H34       1.0  0.92862  0.57406  0.22775  1.0000
  N   N10       1.0  0.91053  0.60053  0.21032  1.0000
  O   O19       1.0  0.93037  0.61552  0.23503  1.0000
  O   O20       1.0  0.91100  0.59656  0.12807  1.0000
  C   C65       1.0  0.46258  0.36029  0.31073  1.0000
  C   C66       1.0  0.44189  0.34764  0.26218  1.0000
  C   C67       1.0  0.42934  0.32323  0.26206  1.0000
  C   C68       1.0  0.43710  0.31057  0.31439  1.0000
  H   H35       1.0  0.43558  0.35629  0.22627  1.0000
  N   N11       1.0  0.40907  0.31171  0.20941  1.0000
  O   O21       1.0  0.39407  0.31664  0.23318  1.0000
  O   O22       1.0  0.41318  0.31603  0.12716  1.0000
  C   C69       1.0  0.64903  0.10426  0.31106  1.0000
  C   C70       1.0  0.66163  0.09621  0.26225  1.0000
  C   C71       1.0  0.68605  0.10804  0.26194  1.0000
  C   C72       1.0  0.69876  0.12844  0.31433  1.0000
  H   H36       1.0  0.65295  0.08127  0.22626  1.0000
  N   N12       1.0  0.69750  0.09929  0.20896  1.0000
  O   O23       1.0  0.69257  0.07935  0.23252  1.0000
  O   O24       1.0  0.69314  0.09912  0.12678  1.0000
  C   C73       1.0  0.45591  0.13630  0.30113  1.0000
  C   C74       1.0  0.46800  0.12412  0.29353  1.0000
  H   H37       1.0  0.46124  0.15091  0.26392  1.0000
  H   H38       1.0  0.48182  0.13029  0.25117  1.0000
  C   C75       1.0  0.68762  0.55329  0.30074  1.0000
  C   C76       1.0  0.66336  0.54119  0.29334  1.0000
  H   H39       1.0  0.69686  0.54775  0.26443  1.0000
  H   H40       1.0  0.65566  0.52718  0.25190  1.0000
  C   C77       1.0  0.87311  0.32163  0.30172  1.0000
  C   C78       1.0  0.88528  0.34590  0.29421  1.0000
  H   H41       1.0  0.85845  0.31236  0.26480  1.0000
  H   H42       1.0  0.87905  0.35357  0.25219  1.0000
  C   C79       1.0  0.55510  0.87113  0.30197  1.0000
  C   C80       1.0  0.54300  0.88330  0.29448  1.0000
  H   H43       1.0  0.54945  0.85625  0.26624  1.0000
  H   H44       1.0  0.52888  0.87687  0.25358  1.0000
  C   C81       1.0  0.32333  0.45402  0.30105  1.0000
  C   C82       1.0  0.34759  0.46610  0.29339  1.0000
  H   H45       1.0  0.31404  0.45934  0.26378  1.0000
  H   H46       1.0  0.35524  0.47991  0.25094  1.0000
  C   C83       1.0  0.13810  0.68601  0.29824  1.0000
  C   C84       1.0  0.12590  0.66174  0.29099  1.0000
  H   H47       1.0  0.15248  0.69527  0.25979  1.0000
  H   H48       1.0  0.13180  0.65405  0.24752  1.0000
  C   C85       1.0  0.10404  0.23598  0.32033  1.0000
  C   C86       1.0  0.09129  0.21178  0.32431  1.0000
  H   H49       1.0  0.09636  0.24416  0.29059  1.0000
  H   H50       1.0  0.07502  0.20361  0.29814  1.0000
  C   C87       1.0  0.77334  0.87001  0.31973  1.0000
  C   C88       1.0  0.79754  0.88142  0.32377  1.0000
  H   H51       1.0  0.76514  0.85418  0.28973  1.0000
  H   H52       1.0  0.80570  0.87335  0.29723  1.0000
  C   C89       1.0  0.13929  0.90508  0.32005  1.0000
  C   C90       1.0  0.12789  0.91788  0.32408  1.0000
  H   H53       1.0  0.15513  0.91272  0.29021  1.0000
  H   H54       1.0  0.13601  0.93414  0.29784  1.0000
  C   C91       1.0  0.90701  0.77142  0.32087  1.0000
  C   C92       1.0  0.91980  0.79562  0.32465  1.0000
  H   H55       1.0  0.91463  0.76320  0.29100  1.0000
  H   H56       1.0  0.93603  0.80376  0.29808  1.0000
  C   C93       1.0  0.23783  0.13750  0.32027  1.0000
  C   C94       1.0  0.21363  0.12605  0.32425  1.0000
  H   H57       1.0  0.24601  0.15335  0.29054  1.0000
  H   H58       1.0  0.20546  0.13416  0.29808  1.0000
  C   C95       1.0  0.87180  0.10220  0.31972  1.0000
  C   C96       1.0  0.88324  0.08944  0.32392  1.0000
  H   H59       1.0  0.85594  0.09451  0.28998  1.0000
  H   H60       1.0  0.87515  0.07317  0.29774  1.0000
  C   C97       1.0  0.09708  0.52886  0.33329  1.0000
  C   C98       1.0  0.10055  0.54115  0.25227  1.0000
  C   C99       1.0  0.10012  0.56209  0.24971  1.0000
  C   C100      1.0  0.09671  0.57126  0.33042  1.0000
  H   H61       1.0  0.10104  0.53371  0.19289  1.0000
  N   N13       1.0  0.10102  0.57302  0.16720  1.0000
  O   O25       1.0  0.08451  0.56017  0.11674  1.0000
  O   O26       1.0  0.11953  0.57888  0.12641  1.0000
  C   C101      1.0  0.48041  0.57008  0.33268  1.0000
  C   C102      1.0  0.46838  0.56102  0.25132  1.0000
  C   C103      1.0  0.44750  0.53957  0.24869  1.0000
  C   C104      1.0  0.43807  0.52721  0.32964  1.0000
  H   H62       1.0  0.47602  0.56873  0.19191  1.0000
  N   N14       1.0  0.43688  0.52933  0.16601  1.0000
  O   O27       1.0  0.44992  0.52559  0.11710  1.0000
  O   O28       1.0  0.43109  0.54182  0.12359  1.0000
  C   C105      1.0  0.43923  0.91237  0.33342  1.0000
  C   C106      1.0  0.44813  0.90906  0.25232  1.0000
  C   C107      1.0  0.46952  0.90952  0.24973  1.0000
  C   C108      1.0  0.48207  0.91278  0.33044  1.0000
  H   H63       1.0  0.44026  0.90868  0.19293  1.0000
  N   N15       1.0  0.47961  0.90879  0.16714  1.0000
  O   O29       1.0  0.48330  0.92539  0.11720  1.0000
  O   O30       1.0  0.46700  0.89036  0.12580  1.0000
  C   C109      1.0  0.91441  0.47881  0.33288  1.0000
  C   C110      1.0  0.91152  0.46686  0.25141  1.0000
  C   C111      1.0  0.91201  0.44594  0.24883  1.0000
  C   C112      1.0  0.91478  0.43642  0.32987  1.0000
  H   H64       1.0  0.91156  0.47456  0.19201  1.0000
  N   N16       1.0  0.91172  0.43535  0.16616  1.0000
  O   O31       1.0  0.92859  0.44840  0.11764  1.0000
  O   O32       1.0  0.89352  0.42966  0.12330  1.0000
  C   C113      1.0  0.53058  0.43737  0.33327  1.0000
  C   C114      1.0  0.54284  0.44618  0.25222  1.0000
  C   C115      1.0  0.56378  0.46758  0.24959  1.0000
  C   C116      1.0  0.57295  0.48017  0.33028  1.0000
  H   H65       1.0  0.53540  0.43825  0.19287  1.0000
  N   N17       1.0  0.57467  0.47760  0.16704  1.0000
  O   O33       1.0  0.56180  0.48124  0.11664  1.0000
  O   O34       1.0  0.58055  0.46496  0.12623  1.0000
  C   C117      1.0  0.57198  0.09526  0.33343  1.0000
  C   C118      1.0  0.56305  0.09852  0.25227  1.0000
  C   C119      1.0  0.54161  0.09796  0.24966  1.0000
  C   C120      1.0  0.52910  0.09475  0.33043  1.0000
  H   H66       1.0  0.57086  0.09877  0.19287  1.0000
  N   N18       1.0  0.53149  0.09860  0.16701  1.0000
  O   O35       1.0  0.52783  0.08196  0.11731  1.0000
  O   O36       1.0  0.54404  0.11700  0.12546  1.0000
  C   C121      1.0  0.01851  0.43259  0.30166  1.0000
  C   C122      1.0  0.99424  0.42002  0.30115  1.0000
  H   H67       1.0  0.02711  0.42607  0.26686  1.0000
  H   H68       1.0  0.98609  0.40485  0.26637  1.0000
  C   C123      1.0  0.57664  0.58772  0.30148  1.0000
  C   C124      1.0  0.58921  0.57602  0.30092  1.0000
  H   H69       1.0  0.58321  0.60289  0.26701  1.0000
  H   H70       1.0  0.60441  0.58308  0.26634  1.0000
  C   C125      1.0  0.42154  0.99096  0.30205  1.0000
  C   C126      1.0  0.43323  0.01523  0.30148  1.0000
  H   H71       1.0  0.40639  0.98235  0.26742  1.0000
  H   H72       1.0  0.42618  0.02337  0.26685  1.0000
  C   C127      1.0  0.99298  0.57510  0.30233  1.0000
  C   C128      1.0  0.01725  0.58770  0.30188  1.0000
  H   H73       1.0  0.98437  0.58164  0.26771  1.0000
  H   H74       1.0  0.02539  0.60289  0.26720  1.0000
  C   C129      1.0  0.43429  0.41964  0.30169  1.0000
  C   C130      1.0  0.42172  0.43134  0.30111  1.0000
  H   H75       1.0  0.42776  0.40450  0.26699  1.0000
  H   H76       1.0  0.40654  0.42430  0.26639  1.0000
  C   C131      1.0  0.58960  0.01666  0.30161  1.0000
  C   C132      1.0  0.57790  0.99239  0.30100  1.0000
  H   H77       1.0  0.60478  0.02528  0.26714  1.0000
  H   H78       1.0  0.58496  0.98426  0.26638  1.0000
  C   C133      1.0  0.10241  0.12701  0.34127  1.0000
  C   C134      1.0  0.09197  0.10396  0.31114  1.0000
  C   C135      1.0  0.10395  0.09151  0.30794  1.0000
  C   C136      1.0  0.12732  0.10207  0.33690  1.0000
  H   H79       1.0  0.07528  0.09590  0.28949  1.0000
  N   N19       1.0  0.09262  0.06879  0.27340  1.0000
  O   O37       1.0  0.08679  0.06815  0.19274  1.0000
  O   O38       1.0  0.07514  0.05554  0.31878  1.0000
  C   C137      1.0  0.88230  0.97726  0.34144  1.0000
  C   C138      1.0  0.90537  0.98989  0.31145  1.0000
  C   C139      1.0  0.91779  0.01431  0.30825  1.0000
  C   C140      1.0  0.90721  0.02710  0.33711  1.0000
  H   H80       1.0  0.91344  0.98127  0.28982  1.0000
  N   N20       1.0  0.94053  0.02571  0.27378  1.0000
  O   O39       1.0  0.94119  0.02053  0.19313  1.0000
  O   O40       1.0  0.95377  0.02149  0.31925  1.0000
  C   C141      1.0  0.03207  0.90687  0.34122  1.0000
  C   C142      1.0  0.01944  0.91730  0.31107  1.0000
  C   C143      1.0  0.99502  0.90532  0.30792  1.0000
  C   C144      1.0  0.98222  0.88195  0.33695  1.0000
  H   H81       1.0  0.02806  0.93398  0.28938  1.0000
  N   N21       1.0  0.98362  0.91664  0.27338  1.0000
  O   O41       1.0  0.98879  0.92245  0.19269  1.0000
  O   O42       1.0  0.98786  0.93413  0.31872  1.0000
  C   C145      1.0  0.90878  0.88042  0.34146  1.0000
  C   C146      1.0  0.91921  0.90347  0.31131  1.0000
  C   C147      1.0  0.90723  0.91591  0.30807  1.0000
  C   C148      1.0  0.88386  0.90535  0.33706  1.0000
  H   H82       1.0  0.93589  0.91153  0.28959  1.0000
  N   N22       1.0  0.91854  0.93863  0.27346  1.0000
  O   O43       1.0  0.92436  0.93926  0.19279  1.0000
  O   O44       1.0  0.93603  0.95189  0.31878  1.0000
  C   C149      1.0  0.12888  0.03016  0.34113  1.0000
  C   C150      1.0  0.10583  0.01753  0.31099  1.0000
  C   C151      1.0  0.09340  0.99311  0.30777  1.0000
  C   C152      1.0  0.10398  0.98031  0.33671  1.0000
  H   H83       1.0  0.09776  0.02615  0.28936  1.0000
  N   N23       1.0  0.07068  0.98171  0.27321  1.0000
  O   O45       1.0  0.07003  0.98689  0.19256  1.0000
  O   O46       1.0  0.05743  0.98593  0.31860  1.0000
  C   C153      1.0  0.97911  0.10056  0.34143  1.0000
  C   C154      1.0  0.99173  0.09012  0.31140  1.0000
  C   C155      1.0  0.01614  0.10210  0.30817  1.0000
  C   C156      1.0  0.02895  0.12547  0.33705  1.0000
  H   H84       1.0  0.98310  0.07343  0.28975  1.0000
  N   N24       1.0  0.02754  0.09076  0.27368  1.0000
  O   O47       1.0  0.02235  0.08492  0.19303  1.0000
  O   O48       1.0  0.02331  0.07329  0.31911  1.0000
  C   C157      1.0  0.16960  0.41537  0.40084  1.0000
  N   N25       1.0  0.16172  0.42955  0.37235  1.0000
  C   C158      1.0  0.14060  0.42127  0.33200  1.0000
  N   N26       1.0  0.12841  0.39818  0.31475  1.0000
  C   C159      1.0  0.13513  0.38322  0.34257  1.0000
  N   N27       1.0  0.15597  0.39271  0.38221  1.0000
  C   C160      1.0  0.59366  0.75610  0.40007  1.0000
  N   N28       1.0  0.57957  0.73401  0.37174  1.0000
  C   C161      1.0  0.58794  0.72122  0.33170  1.0000
  N   N29       1.0  0.61104  0.73219  0.31453  1.0000
  C   C162      1.0  0.62590  0.75393  0.34201  1.0000
  N   N30       1.0  0.61635  0.76523  0.38150  1.0000
  C   C163      1.0  0.25317  0.83968  0.40013  1.0000
  N   N31       1.0  0.27530  0.84769  0.37218  1.0000
  C   C164      1.0  0.28812  0.86885  0.33202  1.0000
  N   N32       1.0  0.27717  0.88098  0.31457  1.0000
  C   C165      1.0  0.25545  0.87409  0.34219  1.0000
  N   N33       1.0  0.24407  0.85326  0.38174  1.0000
  C   C166      1.0  0.84105  0.59160  0.39718  1.0000
  N   N34       1.0  0.84929  0.57763  0.36992  1.0000
  C   C167      1.0  0.87053  0.58614  0.33030  1.0000
  N   N35       1.0  0.88252  0.60922  0.31271  1.0000
  C   C168      1.0  0.87528  0.62388  0.33906  1.0000
  N   N36       1.0  0.85442  0.61429  0.37842  1.0000
  C   C169      1.0  0.41722  0.25135  0.40070  1.0000
  N   N37       1.0  0.43138  0.27342  0.37225  1.0000
  C   C170      1.0  0.42308  0.28625  0.33193  1.0000
  N   N38       1.0  0.39999  0.27533  0.31469  1.0000
  C   C171      1.0  0.38505  0.25365  0.34247  1.0000
  N   N39       1.0  0.39455  0.24230  0.38207  1.0000
  C   C172      1.0  0.75808  0.16773  0.39990  1.0000
  N   N40       1.0  0.73598  0.15985  0.37176  1.0000
  C   C173      1.0  0.72309  0.13871  0.33156  1.0000
  N   N41       1.0  0.73395  0.12650  0.31408  1.0000
  C   C174      1.0  0.75566  0.13324  0.34141  1.0000
  N   N42       1.0  0.76707  0.15407  0.38100  1.0000
  C   C175      1.0  0.41750  0.16957  0.41551  1.0000
  N   N43       1.0  0.43170  0.16144  0.38966  1.0000
  C   C176      1.0  0.42285  0.13919  0.36068  1.0000
  N   N44       1.0  0.39959  0.12577  0.35090  1.0000
  C   C177      1.0  0.38498  0.13297  0.37816  1.0000
  N   N45       1.0  0.39451  0.15472  0.40895  1.0000
  C   C178      1.0  0.75919  0.59133  0.41441  1.0000
  N   N46       1.0  0.73688  0.57733  0.38808  1.0000
  C   C179      1.0  0.72364  0.58640  0.35953  1.0000
  N   N47       1.0  0.73367  0.60971  0.35059  1.0000
  C   C180      1.0  0.75552  0.62413  0.37809  1.0000
  N   N48       1.0  0.76753  0.61437  0.40880  1.0000
  C   C181      1.0  0.83994  0.24988  0.41530  1.0000
  N   N49       1.0  0.84804  0.27221  0.38960  1.0000
  C   C182      1.0  0.87028  0.28565  0.36062  1.0000
  N   N50       1.0  0.88371  0.27582  0.35073  1.0000
  C   C183      1.0  0.87657  0.25400  0.37774  1.0000
  N   N51       1.0  0.85480  0.24176  0.40835  1.0000
  C   C184      1.0  0.59342  0.83786  0.41565  1.0000
  N   N52       1.0  0.57935  0.84609  0.38921  1.0000
  C   C185      1.0  0.58834  0.86834  0.36008  1.0000
  N   N53       1.0  0.61164  0.88163  0.35069  1.0000
  C   C186      1.0  0.62616  0.87438  0.37863  1.0000
  N   N54       1.0  0.61644  0.85262  0.40952  1.0000
  C   C187      1.0  0.25166  0.41563  0.41562  1.0000
  N   N55       1.0  0.27399  0.42983  0.38975  1.0000
  C   C188      1.0  0.28739  0.42098  0.36075  1.0000
  N   N56       1.0  0.27755  0.39772  0.35095  1.0000
  C   C189      1.0  0.25574  0.38311  0.37822  1.0000
  N   N57       1.0  0.24352  0.39264  0.40904  1.0000
  C   C190      1.0  0.17161  0.75764  0.41473  1.0000
  N   N58       1.0  0.16354  0.73535  0.38861  1.0000
  C   C191      1.0  0.14134  0.72197  0.35913  1.0000
  N   N59       1.0  0.12788  0.73178  0.34955  1.0000
  C   C192      1.0  0.13506  0.75360  0.37682  1.0000
  N   N60       1.0  0.15676  0.76578  0.40815  1.0000
  C   C193      1.0  0.14224  0.30730  0.27536  1.0000
  N   N61       1.0  0.13027  0.28551  0.30901  1.0000
  C   C194      1.0  0.14048  0.27286  0.33007  1.0000
  N   N62       1.0  0.16390  0.28388  0.32420  1.0000
  C   C195      1.0  0.17669  0.30539  0.28943  1.0000
  N   N63       1.0  0.16531  0.31652  0.26586  1.0000
  C   C196      1.0  0.70195  0.83699  0.27585  1.0000
  N   N64       1.0  0.72375  0.84673  0.30925  1.0000
  C   C197      1.0  0.73648  0.86960  0.33018  1.0000
  N   N65       1.0  0.72557  0.88210  0.32433  1.0000
  C   C198      1.0  0.70407  0.87342  0.28965  1.0000
  N   N66       1.0  0.69279  0.85090  0.26627  1.0000
  C   C199      1.0  0.17232  0.86678  0.27550  1.0000
  N   N67       1.0  0.16251  0.87877  0.30900  1.0000
  C   C200      1.0  0.13963  0.86859  0.32991  1.0000
  N   N68       1.0  0.12719  0.84516  0.32400  1.0000
  C   C201      1.0  0.13593  0.83240  0.28923  1.0000
  N   N69       1.0  0.15845  0.84371  0.26575  1.0000
  C   C202      1.0  0.86859  0.70009  0.27652  1.0000
  N   N70       1.0  0.88068  0.72187  0.31007  1.0000
  C   C203      1.0  0.87055  0.73457  0.33163  1.0000
  N   N71       1.0  0.84712  0.72363  0.32625  1.0000
  C   C204      1.0  0.83426  0.70212  0.29162  1.0000
  N   N72       1.0  0.84551  0.69091  0.26736  1.0000
  C   C205      1.0  0.30913  0.17061  0.27526  1.0000
  N   N73       1.0  0.28735  0.16079  0.30892  1.0000
  C   C206      1.0  0.27470  0.13793  0.32999  1.0000
  N   N74       1.0  0.28572  0.12552  0.32415  1.0000
  C   C207      1.0  0.30723  0.13424  0.28937  1.0000
  N   N75       1.0  0.31836  0.15676  0.26578  1.0000
  C   C208      1.0  0.83865  0.14035  0.27480  1.0000
  N   N76       1.0  0.84847  0.12839  0.30845  1.0000
  C   C209      1.0  0.87132  0.13862  0.32964  1.0000
  N   N77       1.0  0.88371  0.16205  0.32389  1.0000
  C   C210      1.0  0.87497  0.17483  0.28911  1.0000
  N   N78       1.0  0.85247  0.16343  0.26532  1.0000
  C   C211      1.0  0.08890  0.50494  0.33069  1.0000
  N   N79       1.0  0.10224  0.49509  0.32108  1.0000
  C   C212      1.0  0.09257  0.47170  0.31741  1.0000
  N   N80       1.0  0.06918  0.45848  0.32471  1.0000
  C   C213      1.0  0.05534  0.46773  0.33608  1.0000
  N   N81       1.0  0.06584  0.49102  0.33768  1.0000
  C   C214      1.0  0.50433  0.58581  0.33041  1.0000
  N   N82       1.0  0.51421  0.60902  0.32103  1.0000
  C   C215      1.0  0.53759  0.62271  0.31752  1.0000
  N   N83       1.0  0.55079  0.61252  0.32477  1.0000
  C   C216      1.0  0.54151  0.58941  0.33594  1.0000
  N   N84       1.0  0.51822  0.57664  0.33737  1.0000
  C   C217      1.0  0.42350  0.92056  0.33095  1.0000
  N   N85       1.0  0.40030  0.90723  0.32140  1.0000
  C   C218      1.0  0.38660  0.91691  0.31775  1.0000
  N   N86       1.0  0.39677  0.94030  0.32503  1.0000
  C   C219      1.0  0.41988  0.95414  0.33635  1.0000
  N   N87       1.0  0.43265  0.94362  0.33791  1.0000
  C   C220      1.0  0.92261  0.50274  0.33079  1.0000
  N   N88       1.0  0.90928  0.51261  0.32128  1.0000
  C   C221      1.0  0.91895  0.53600  0.31790  1.0000
  N   N89       1.0  0.94233  0.54920  0.32536  1.0000
  C   C222      1.0  0.95617  0.53994  0.33666  1.0000
  N   N90       1.0  0.94567  0.51665  0.33797  1.0000
  C   C223      1.0  0.50666  0.42163  0.33073  1.0000
  N   N91       1.0  0.49681  0.39843  0.32112  1.0000
  C   C224      1.0  0.47342  0.38471  0.31745  1.0000
  N   N92       1.0  0.46020  0.39487  0.32472  1.0000
  C   C225      1.0  0.46945  0.41797  0.33607  1.0000
  N   N93       1.0  0.49273  0.43076  0.33768  1.0000
  C   C226      1.0  0.58771  0.08708  0.33103  1.0000
  N   N94       1.0  0.61091  0.10041  0.32152  1.0000
  C   C227      1.0  0.62460  0.09072  0.31783  1.0000
  N   N95       1.0  0.61442  0.06733  0.32498  1.0000
  C   C228      1.0  0.59131  0.05349  0.33625  1.0000
  N   N96       1.0  0.57855  0.06402  0.33787  1.0000
  C   C229      1.0  0.50510  0.08629  0.32827  1.0000
  N   N97       1.0  0.49502  0.09959  0.32809  1.0000
  C   C230      1.0  0.47162  0.08977  0.33138  1.0000
  N   N98       1.0  0.45866  0.06632  0.33538  1.0000
  C   C231      1.0  0.46819  0.05259  0.33588  1.0000
  N   N99       1.0  0.49147  0.06313  0.33311  1.0000
  C   C232      1.0  0.58846  0.50418  0.32796  1.0000
  N   N100      1.0  0.61184  0.51429  0.32754  1.0000
  C   C233      1.0  0.62540  0.53770  0.33063  1.0000
  N   N101      1.0  0.61487  0.55063  0.33457  1.0000
  C   C234      1.0  0.59161  0.54107  0.33533  1.0000
  N   N102      1.0  0.57889  0.51778  0.33279  1.0000
  C   C235      1.0  0.92321  0.42085  0.32813  1.0000
  N   N103      1.0  0.90989  0.39747  0.32817  1.0000
  C   C236      1.0  0.91970  0.38387  0.33168  1.0000
  N   N104      1.0  0.94315  0.39436  0.33555  1.0000
  C   C237      1.0  0.95689  0.41762  0.33582  1.0000
  N   N105      1.0  0.94638  0.43038  0.33288  1.0000
  C   C238      1.0  0.50607  0.92128  0.32838  1.0000
  N   N106      1.0  0.51619  0.90802  0.32790  1.0000
  C   C239      1.0  0.53960  0.91787  0.33091  1.0000
  N   N107      1.0  0.55252  0.94133  0.33475  1.0000
  C   C240      1.0  0.54295  0.95503  0.33549  1.0000
  N   N108      1.0  0.51967  0.94446  0.33302  1.0000
  C   C241      1.0  0.42253  0.50320  0.32772  1.0000
  N   N109      1.0  0.39915  0.49313  0.32773  1.0000
  C   C242      1.0  0.38556  0.46973  0.33121  1.0000
  N   N110      1.0  0.39605  0.45677  0.33522  1.0000
  C   C243      1.0  0.41932  0.46630  0.33556  1.0000
  N   N111      1.0  0.43207  0.48957  0.33260  1.0000
  C   C244      1.0  0.08827  0.58683  0.32820  1.0000
  N   N112      1.0  0.10160  0.61020  0.32765  1.0000
  C   C245      1.0  0.09181  0.62381  0.33101  1.0000
  N   N113      1.0  0.06836  0.61337  0.33543  1.0000
  C   C246      1.0  0.05461  0.59011  0.33628  1.0000
  N   N114      1.0  0.06511  0.57733  0.33343  1.0000
  C   C247      1.0  0.08989  0.13913  0.34437  1.0000
  N   N115      1.0  0.10064  0.16245  0.35173  1.0000
  C   C248      1.0  0.08905  0.17431  0.35325  1.0000
  N   N116      1.0  0.06566  0.16178  0.34700  1.0000
  C   C249      1.0  0.05372  0.13837  0.34014  1.0000
  N   N117      1.0  0.06651  0.12777  0.33910  1.0000
  C   C250      1.0  0.87019  0.95262  0.34446  1.0000
  N   N118      1.0  0.84687  0.94004  0.35182  1.0000
  C   C251      1.0  0.83502  0.91660  0.35325  1.0000
  N   N119      1.0  0.84755  0.90574  0.34697  1.0000
  C   C252      1.0  0.87096  0.91721  0.34013  1.0000
  N   N120      1.0  0.88155  0.94060  0.33917  1.0000
  C   C253      1.0  0.05670  0.91939  0.34425  1.0000
  N   N121      1.0  0.06927  0.90863  0.35165  1.0000
  C   C254      1.0  0.09271  0.92021  0.35313  1.0000
  N   N122      1.0  0.10358  0.94360  0.34677  1.0000
  C   C255      1.0  0.09212  0.95555  0.33985  1.0000
  N   N123      1.0  0.06873  0.94276  0.33890  1.0000
  C   C256      1.0  0.92129  0.86830  0.34455  1.0000
  N   N124      1.0  0.91055  0.84498  0.35214  1.0000
  C   C257      1.0  0.92214  0.83313  0.35367  1.0000
  N   N125      1.0  0.94552  0.84565  0.34723  1.0000
  C   C258      1.0  0.95746  0.86906  0.34015  1.0000
  N   N126      1.0  0.94467  0.87966  0.33911  1.0000
  C   C259      1.0  0.14098  0.05480  0.34425  1.0000
  N   N127      1.0  0.16431  0.06738  0.35164  1.0000
  C   C260      1.0  0.17615  0.09082  0.35317  1.0000
  N   N128      1.0  0.16362  0.10168  0.34690  1.0000
  C   C261      1.0  0.14021  0.09020  0.34001  1.0000
  N   N129      1.0  0.12962  0.06681  0.33897  1.0000
  C   C262      1.0  0.95447  0.08804  0.34448  1.0000
  N   N130      1.0  0.94189  0.09879  0.35178  1.0000
  C   C263      1.0  0.91845  0.08720  0.35323  1.0000
  N   N131      1.0  0.90759  0.06381  0.34699  1.0000
  C   C264      1.0  0.91907  0.05187  0.34020  1.0000
  N   N132      1.0  0.94246  0.06467  0.33923  1.0000
  C   C265      1.0  0.11622  0.34173  0.35296  1.0000
  C   C266      1.0  0.11787  0.32196  0.33488  1.0000
  H   H85       1.0  0.10777  0.34191  0.40991  1.0000
  H   H86       1.0  0.11062  0.30871  0.38008  1.0000
  C   C267      1.0  0.66750  0.77644  0.35253  1.0000
  C   C268      1.0  0.68728  0.79787  0.33468  1.0000
  H   H87       1.0  0.66736  0.76767  0.40899  1.0000
  H   H88       1.0  0.70060  0.80381  0.37951  1.0000
  C   C269      1.0  0.23283  0.89301  0.35244  1.0000
  C   C270      1.0  0.21136  0.89129  0.33453  1.0000
  H   H89       1.0  0.24146  0.90151  0.40931  1.0000
  H   H90       1.0  0.20537  0.89855  0.37972  1.0000
  C   C271      1.0  0.89467  0.66543  0.35083  1.0000
  C   C272      1.0  0.89306  0.68528  0.33398  1.0000
  H   H91       1.0  0.90323  0.66511  0.40721  1.0000
  H   H92       1.0  0.90041  0.69846  0.37941  1.0000
  C   C273      1.0  0.34356  0.23106  0.35282  1.0000
  C   C274      1.0  0.32378  0.20964  0.33474  1.0000
  H   H93       1.0  0.34373  0.23969  0.40975  1.0000
  H   H94       1.0  0.31053  0.20364  0.37992  1.0000
  C   C275      1.0  0.77814  0.11413  0.35165  1.0000
  C   C276      1.0  0.79957  0.11581  0.33366  1.0000
  H   H95       1.0  0.76943  0.10555  0.40827  1.0000
  H   H96       1.0  0.80556  0.10849  0.37857  1.0000
  C   C277      1.0  0.32136  0.12452  0.30350  1.0000
  C   C278      1.0  0.32403  0.11866  0.39215  1.0000
  C   C279      1.0  0.34480  0.11966  0.41897  1.0000
  C   C280      1.0  0.36163  0.12274  0.35390  1.0000
  H   H97       1.0  0.31309  0.11803  0.44146  1.0000
  N   N133      1.0  0.34975  0.11878  0.51098  1.0000
  O   O49       1.0  0.35063  0.13529  0.55425  1.0000
  O   O50       1.0  0.33503  0.10027  0.54687  1.0000
  C   C281      1.0  0.81039  0.68817  0.30584  1.0000
  C   C282      1.0  0.80222  0.68500  0.39525  1.0000
  C   C283      1.0  0.78260  0.66401  0.42145  1.0000
  C   C284      1.0  0.76865  0.64760  0.35547  1.0000
  H   H98       1.0  0.81278  0.69555  0.44491  1.0000
  N   N134      1.0  0.77708  0.65855  0.51341  1.0000
  O   O51       1.0  0.79290  0.65754  0.55468  1.0000
  O   O52       1.0  0.77331  0.67300  0.55181  1.0000
  C   C285      1.0  0.88471  0.19871  0.30282  1.0000
  C   C286      1.0  0.89094  0.20742  0.39109  1.0000
  C   C287      1.0  0.89008  0.22727  0.41795  1.0000
  C   C288      1.0  0.88679  0.24090  0.35302  1.0000
  H   H99       1.0  0.89175  0.19720  0.44037  1.0000
  N   N135      1.0  0.89130  0.23328  0.50988  1.0000
  O   O53       1.0  0.87492  0.21776  0.55404  1.0000
  O   O54       1.0  0.90992  0.23709  0.54479  1.0000
  C   C289      1.0  0.69003  0.88323  0.30413  1.0000
  C   C290      1.0  0.68704  0.88840  0.39354  1.0000
  C   C291      1.0  0.66612  0.88709  0.42035  1.0000
  C   C292      1.0  0.64954  0.88448  0.35491  1.0000
  H   H100      1.0  0.69773  0.88853  0.44292  1.0000
  N   N136      1.0  0.66090  0.88736  0.51247  1.0000
  O   O55       1.0  0.66000  0.87063  0.55411  1.0000
  O   O56       1.0  0.67546  0.90568  0.55008  1.0000
  C   C293      1.0  0.20055  0.31951  0.30352  1.0000
  C   C294      1.0  0.20909  0.32216  0.39214  1.0000
  C   C295      1.0  0.22888  0.34293  0.41897  1.0000
  C   C296      1.0  0.24262  0.35976  0.35391  1.0000
  H   H101      1.0  0.19879  0.31122  0.44145  1.0000
  N   N137      1.0  0.23472  0.34786  0.51097  1.0000
  O   O57       1.0  0.21910  0.34874  0.55431  1.0000
  O   O58       1.0  0.23850  0.33313  0.54678  1.0000
  C   C297      1.0  0.12615  0.80853  0.30311  1.0000
  C   C298      1.0  0.12060  0.80009  0.39207  1.0000
  C   C299      1.0  0.12182  0.78041  0.41863  1.0000
  C   C300      1.0  0.12467  0.76662  0.35310  1.0000
  H   H102      1.0  0.12027  0.81050  0.44161  1.0000
  N   N138      1.0  0.12125  0.77469  0.51063  1.0000
  O   O59       1.0  0.13785  0.79042  0.55321  1.0000
  O   O60       1.0  0.10282  0.77085  0.54743  1.0000
  C   C301      1.0  0.23472  0.42161  0.43727  1.0000
  C   C302      1.0  0.21578  0.40618  0.49043  1.0000
  C   C303      1.0  0.19460  0.40575  0.48851  1.0000
  C   C304      1.0  0.19188  0.42137  0.43225  1.0000
  H   H103      1.0  0.21664  0.39366  0.52671  1.0000
  N   N139      1.0  0.17595  0.38941  0.54129  1.0000
  O   O61       1.0  0.17030  0.36905  0.52105  1.0000
  O   O62       1.0  0.18100  0.39241  0.62324  1.0000
  C   C305      1.0  0.58731  0.81490  0.43706  1.0000
  C   C306      1.0  0.60260  0.81128  0.49074  1.0000
  C   C307      1.0  0.60307  0.79055  0.48833  1.0000
  C   C308      1.0  0.58757  0.77232  0.43141  1.0000
  H   H104      1.0  0.61506  0.82460  0.52739  1.0000
  N   N140      1.0  0.61929  0.78814  0.54148  1.0000
  O   O63       1.0  0.63969  0.80290  0.52208  1.0000
  O   O64       1.0  0.61607  0.79000  0.62337  1.0000
  C   C309      1.0  0.19450  0.77453  0.43689  1.0000
  C   C310      1.0  0.19798  0.79343  0.49029  1.0000
  C   C311      1.0  0.21870  0.81464  0.48840  1.0000
  C   C312      1.0  0.23703  0.81741  0.43204  1.0000
  H   H105      1.0  0.18458  0.79252  0.52653  1.0000
  N   N141      1.0  0.22096  0.83326  0.54121  1.0000
  O   O65       1.0  0.20621  0.83885  0.52106  1.0000
  O   O66       1.0  0.21894  0.82820  0.62315  1.0000
  C   C313      1.0  0.77594  0.58507  0.43575  1.0000
  C   C314      1.0  0.79485  0.60023  0.48970  1.0000
  C   C315      1.0  0.81603  0.60068  0.48691  1.0000
  C   C316      1.0  0.81876  0.58529  0.42937  1.0000
  H   H106      1.0  0.79400  0.61264  0.52682  1.0000
  N   N142      1.0  0.83467  0.61676  0.54036  1.0000
  O   O67       1.0  0.84032  0.63721  0.52191  1.0000
  O   O68       1.0  0.82957  0.61331  0.62218  1.0000
  C   C317      1.0  0.42348  0.19249  0.43715  1.0000
  C   C318      1.0  0.40806  0.19600  0.49035  1.0000
  C   C319      1.0  0.40762  0.21675  0.48841  1.0000
  C   C320      1.0  0.42323  0.23508  0.43211  1.0000
  H   H107      1.0  0.39555  0.18263  0.52667  1.0000
  N   N143      1.0  0.39129  0.21906  0.54124  1.0000
  O   O69       1.0  0.37093  0.20435  0.52107  1.0000
  O   O70       1.0  0.39432  0.21703  0.62319  1.0000
  C   C321      1.0  0.81701  0.23289  0.43664  1.0000
  C   C322      1.0  0.81352  0.21387  0.48935  1.0000
  C   C323      1.0  0.79279  0.19267  0.48715  1.0000
  C   C324      1.0  0.77443  0.19001  0.43118  1.0000
  H   H108      1.0  0.82691  0.21469  0.52535  1.0000
  N   N144      1.0  0.79053  0.17399  0.53956  1.0000
  O   O71       1.0  0.80524  0.16838  0.51889  1.0000
  O   O72       1.0  0.79260  0.17895  0.62161  1.0000
  C   C325      1.0  0.13892  0.45676  0.35902  1.0000
  C   C326      1.0  0.12726  0.46935  0.35658  1.0000
  H   H109      1.0  0.15326  0.46299  0.39857  1.0000
  H   H110      1.0  0.13358  0.48407  0.39395  1.0000
  C   C327      1.0  0.55248  0.68401  0.35877  1.0000
  C   C328      1.0  0.53990  0.65976  0.35636  1.0000
  H   H111      1.0  0.54617  0.69213  0.39783  1.0000
  H   H112      1.0  0.52512  0.65135  0.39339  1.0000
  C   C329      1.0  0.32530  0.87055  0.35925  1.0000
  C   C330      1.0  0.34955  0.88222  0.35686  1.0000
  H   H113      1.0  0.31718  0.85620  0.39872  1.0000
  H   H114      1.0  0.35795  0.87589  0.39418  1.0000
  C   C331      1.0  0.87242  0.55077  0.35810  1.0000
  C   C332      1.0  0.88414  0.53824  0.35604  1.0000
  H   H115      1.0  0.85791  0.54439  0.39672  1.0000
  H   H116      1.0  0.87773  0.52342  0.39291  1.0000
  C   C333      1.0  0.45855  0.32344  0.35900  1.0000
  C   C334      1.0  0.47111  0.34769  0.35659  1.0000
  H   H117      1.0  0.46479  0.31533  0.39855  1.0000
  H   H118      1.0  0.48584  0.35611  0.39396  1.0000
  C   C335      1.0  0.68593  0.13701  0.35934  1.0000
  C   C336      1.0  0.66167  0.12537  0.35706  1.0000
  H   H119      1.0  0.69408  0.15137  0.39881  1.0000
  H   H120      1.0  0.65329  0.13169  0.39457  1.0000
  C   C337      1.0  0.46055  0.10313  0.33969  1.0000
  C   C338      1.0  0.44141  0.09552  0.39753  1.0000
  C   C339      1.0  0.42941  0.10773  0.40739  1.0000
  C   C340      1.0  0.43613  0.12801  0.35605  1.0000
  H   H121      1.0  0.43618  0.08098  0.43524  1.0000
  N   N145      1.0  0.41134  0.10028  0.47106  1.0000
  O   O73       1.0  0.39525  0.08025  0.45501  1.0000
  O   O74       1.0  0.41845  0.10100  0.54976  1.0000
  C   C341      1.0  0.64984  0.54882  0.33857  1.0000
  C   C342      1.0  0.66143  0.56820  0.39528  1.0000
  C   C343      1.0  0.68564  0.58020  0.40504  1.0000
  C   C344      1.0  0.69916  0.57327  0.35457  1.0000
  H   H122      1.0  0.65215  0.57355  0.43251  1.0000
  N   N146      1.0  0.69628  0.59845  0.46799  1.0000
  O   O75       1.0  0.69236  0.61451  0.45090  1.0000
  O   O76       1.0  0.68989  0.59157  0.54692  1.0000
  C   C345      1.0  0.90634  0.35944  0.33997  1.0000
  C   C346      1.0  0.91403  0.34789  0.39733  1.0000
  C   C347      1.0  0.90184  0.32368  0.40709  1.0000
  C   C348      1.0  0.88148  0.31013  0.35613  1.0000
  H   H123      1.0  0.92862  0.35719  0.43476  1.0000
  N   N147      1.0  0.90938  0.31304  0.47031  1.0000
  O   O77       1.0  0.92939  0.31699  0.45366  1.0000
  O   O78       1.0  0.90879  0.31942  0.54916  1.0000
  C   C349      1.0  0.55075  0.90457  0.33889  1.0000
  C   C350      1.0  0.57027  0.91249  0.39490  1.0000
  C   C351      1.0  0.58228  0.90030  0.40474  1.0000
  C   C352      1.0  0.57521  0.87970  0.35506  1.0000
  H   H124      1.0  0.57572  0.92722  0.43159  1.0000
  N   N148      1.0  0.60069  0.90809  0.46703  1.0000
  O   O79       1.0  0.61671  0.92800  0.44889  1.0000
  O   O80       1.0  0.59402  0.90783  0.54613  1.0000
  C   C353      1.0  0.36114  0.45868  0.33961  1.0000
  C   C354      1.0  0.34962  0.43955  0.39757  1.0000
  C   C355      1.0  0.32541  0.42756  0.40749  1.0000
  C   C356      1.0  0.31185  0.43427  0.35609  1.0000
  H   H125      1.0  0.35894  0.43434  0.43531  1.0000
  N   N149      1.0  0.31479  0.40951  0.47125  1.0000
  O   O81       1.0  0.31873  0.39342  0.45528  1.0000
  O   O82       1.0  0.32120  0.41665  0.54991  1.0000
  C   C357      1.0  0.10521  0.64823  0.33901  1.0000
  C   C358      1.0  0.09795  0.65979  0.39831  1.0000
  C   C359      1.0  0.11022  0.68400  0.40794  1.0000
  C   C360      1.0  0.13017  0.69751  0.35483  1.0000
  H   H126      1.0  0.08365  0.65048  0.43728  1.0000
  N   N150      1.0  0.10321  0.69471  0.47295  1.0000
  O   O83       1.0  0.08308  0.69075  0.45916  1.0000
  O   O84       1.0  0.10443  0.68839  0.55122  1.0000
  C   C361      1.0  0.10116  0.19891  0.35713  1.0000
  C   C362      1.0  0.12389  0.21146  0.39072  1.0000
  C   C363      1.0  0.13687  0.23588  0.38834  1.0000
  C   C364      1.0  0.12723  0.24865  0.34982  1.0000
  H   H127      1.0  0.13141  0.20277  0.41725  1.0000
  N   N151      1.0  0.15933  0.24747  0.42525  1.0000
  O   O85       1.0  0.17255  0.24203  0.38641  1.0000
  O   O86       1.0  0.15917  0.24358  0.50790  1.0000
  C   C365      1.0  0.81042  0.90411  0.35716  1.0000
  C   C366      1.0  0.79789  0.91424  0.39131  1.0000
  C   C367      1.0  0.77347  0.90282  0.38896  1.0000
  C   C368      1.0  0.76070  0.88050  0.34986  1.0000
  H   H128      1.0  0.80660  0.93042  0.41826  1.0000
  N   N152      1.0  0.76189  0.91364  0.42655  1.0000
  O   O87       1.0  0.76735  0.93238  0.38836  1.0000
  O   O88       1.0  0.76579  0.91720  0.50927  1.0000
  C   C369      1.0  0.10516  0.90807  0.35704  1.0000
  C   C370      1.0  0.09496  0.88534  0.39072  1.0000
  C   C371      1.0  0.10635  0.87231  0.38828  1.0000
  C   C372      1.0  0.12872  0.88189  0.34959  1.0000
  H   H129      1.0  0.07875  0.87785  0.41735  1.0000
  N   N153      1.0  0.09545  0.84986  0.42529  1.0000
  O   O89       1.0  0.07675  0.83666  0.38660  1.0000
  O   O90       1.0  0.09176  0.85005  0.50796  1.0000
  C   C373      1.0  0.91002  0.80854  0.35785  1.0000
  C   C374      1.0  0.88736  0.79603  0.39209  1.0000
  C   C375      1.0  0.87435  0.77161  0.38999  1.0000
  C   C376      1.0  0.88388  0.75880  0.35103  1.0000
  H   H130      1.0  0.87990  0.80476  0.41891  1.0000
  N   N154      1.0  0.85196  0.76008  0.42762  1.0000
  O   O91       1.0  0.83867  0.76552  0.38929  1.0000
  O   O92       1.0  0.85230  0.76403  0.51029  1.0000
  C   C377      1.0  0.20075  0.10331  0.35707  1.0000
  C   C378      1.0  0.21330  0.09314  0.39066  1.0000
  C   C379      1.0  0.23772  0.10457  0.38827  1.0000
  C   C380      1.0  0.25049  0.12697  0.34975  1.0000
  H   H131      1.0  0.20461  0.07691  0.41718  1.0000
  N   N155      1.0  0.24931  0.09369  0.42516  1.0000
  O   O93       1.0  0.24386  0.07503  0.38630  1.0000
  O   O94       1.0  0.24542  0.08996  0.50781  1.0000
  C   C381      1.0  0.90595  0.09930  0.35699  1.0000
  C   C382      1.0  0.91610  0.12202  0.39067  1.0000
  C   C383      1.0  0.90466  0.13500  0.38815  1.0000
  C   C384      1.0  0.88229  0.12538  0.34933  1.0000
  H   H132      1.0  0.93231  0.12954  0.41738  1.0000
  N   N156      1.0  0.91549  0.15744  0.42525  1.0000
  O   O95       1.0  0.93419  0.17069  0.38671  1.0000
  O   O96       1.0  0.91914  0.15723  0.50795  1.0000
  C   C385      1.0  0.09423  0.55943  0.41199  1.0000
  C   C386      1.0  0.09419  0.53846  0.41322  1.0000
  H   H133      1.0  0.08996  0.56466  0.46986  1.0000
  H   H134      1.0  0.08998  0.52927  0.47188  1.0000
  C   C387      1.0  0.44965  0.53680  0.41138  1.0000
  C   C388      1.0  0.47057  0.55780  0.41277  1.0000
  H   H135      1.0  0.44420  0.52749  0.46964  1.0000
  H   H136      1.0  0.47958  0.56298  0.47179  1.0000
  C   C389      1.0  0.47261  0.91510  0.41205  1.0000
  C   C390      1.0  0.45167  0.91512  0.41336  1.0000
  H   H137      1.0  0.48207  0.91927  0.47003  1.0000
  H   H138      1.0  0.44664  0.91922  0.47215  1.0000
  C   C391      1.0  0.91669  0.44796  0.41167  1.0000
  C   C392      1.0  0.91669  0.46891  0.41308  1.0000
  H   H139      1.0  0.92044  0.44244  0.47000  1.0000
  H   H140      1.0  0.92046  0.47789  0.47217  1.0000
  C   C393      1.0  0.56114  0.47082  0.41189  1.0000
  C   C394      1.0  0.54019  0.44987  0.41318  1.0000
  H   H141      1.0  0.56638  0.48033  0.46973  1.0000
  H   H142      1.0  0.53100  0.44489  0.47186  1.0000
  C   C395      1.0  0.53859  0.09251  0.41203  1.0000
  C   C396      1.0  0.55957  0.09257  0.41341  1.0000
  H   H143      1.0  0.52919  0.08847  0.47013  1.0000
  H   H144      1.0  0.56466  0.08856  0.47227  1.0000
  C   C397      1.0  0.98131  0.42888  0.34218  1.0000
  C   C398      1.0  0.99355  0.45006  0.38821  1.0000
  C   C399      1.0  0.01790  0.46264  0.39115  1.0000
  C   C400      1.0  0.03082  0.45434  0.34429  1.0000
  H   H145      1.0  0.98469  0.45656  0.42139  1.0000
  N   N157      1.0  0.02917  0.48311  0.44284  1.0000
  O   O97       1.0  0.02492  0.49825  0.41484  1.0000
  O   O98       1.0  0.02398  0.47944  0.52465  1.0000
  C   C401      1.0  0.58033  0.55421  0.34170  1.0000
  C   C402      1.0  0.55912  0.54523  0.38755  1.0000
  C   C403      1.0  0.54655  0.55700  0.39060  1.0000
  C   C404      1.0  0.55488  0.57826  0.34400  1.0000
  H   H146      1.0  0.55260  0.52984  0.42059  1.0000
  N   N158      1.0  0.52606  0.54777  0.44214  1.0000
  O   O99       1.0  0.51092  0.52840  0.41390  1.0000
  O   O100      1.0  0.52968  0.54617  0.52394  1.0000
  C   C405      1.0  0.45504  0.02817  0.34229  1.0000
  C   C406      1.0  0.46403  0.01594  0.38814  1.0000
  C   C407      1.0  0.45227  0.99159  0.39110  1.0000
  C   C408      1.0  0.43102  0.97866  0.34447  1.0000
  H   H147      1.0  0.47941  0.02480  0.42116  1.0000
  N   N159      1.0  0.46151  0.98033  0.44258  1.0000
  O   O101      1.0  0.48089  0.98459  0.41430  1.0000
  O   O102      1.0  0.46311  0.98553  0.52440  1.0000
  C   C409      1.0  0.03019  0.57885  0.34283  1.0000
  C   C410      1.0  0.01796  0.55764  0.38873  1.0000
  C   C411      1.0  0.99362  0.54504  0.39163  1.0000
  C   C412      1.0  0.98068  0.55334  0.34486  1.0000
  H   H148      1.0  0.02684  0.55114  0.42184  1.0000
  N   N160      1.0  0.98235  0.52455  0.44316  1.0000
  O   O103      1.0  0.98663  0.50943  0.41500  1.0000
  O   O104      1.0  0.98754  0.52817  0.52499  1.0000
  C   C413      1.0  0.43058  0.45314  0.34200  1.0000
  C   C414      1.0  0.45178  0.46210  0.38795  1.0000
  C   C415      1.0  0.46436  0.45035  0.39094  1.0000
  C   C416      1.0  0.45605  0.42910  0.34423  1.0000
  H   H149      1.0  0.45829  0.47749  0.42103  1.0000
  N   N161      1.0  0.48484  0.45957  0.44254  1.0000
  O   O105      1.0  0.49997  0.47895  0.41441  1.0000
  O   O106      1.0  0.48120  0.46113  0.52435  1.0000
  C   C417      1.0  0.55609  0.97946  0.34179  1.0000
  C   C418      1.0  0.54712  0.99169  0.38770  1.0000
  C   C419      1.0  0.55889  0.01603  0.39082  1.0000
  C   C420      1.0  0.58015  0.02897  0.34420  1.0000
  H   H150      1.0  0.53174  0.98282  0.42078  1.0000
  N   N162      1.0  0.54968  0.02729  0.44247  1.0000
  O   O107      1.0  0.53030  0.02306  0.41428  1.0000
  O   O108      1.0  0.54808  0.02205  0.52425  1.0000
  C   C421      1.0  0.13781  0.12532  0.36553  1.0000
  C   C422      1.0  0.12574  0.13749  0.36739  1.0000
  H   H151      1.0  0.15447  0.13373  0.38755  1.0000
  H   H152      1.0  0.13418  0.15410  0.39013  1.0000
  C   C423      1.0  0.88396  0.01434  0.36565  1.0000
  C   C424      1.0  0.87180  0.99010  0.36746  1.0000
  H   H153      1.0  0.87553  0.02259  0.38752  1.0000
  H   H154      1.0  0.85518  0.98193  0.39007  1.0000
  C   C425      1.0  0.99498  0.87146  0.36559  1.0000
  C   C426      1.0  0.01921  0.88354  0.36740  1.0000
  H   H155      1.0  0.98673  0.85481  0.38767  1.0000
  H   H156      1.0  0.02738  0.87510  0.39016  1.0000
  C   C427      1.0  0.87337  0.88211  0.36577  1.0000
  C   C428      1.0  0.88544  0.86994  0.36762  1.0000
  H   H157      1.0  0.85671  0.87370  0.38774  1.0000
  H   H158      1.0  0.87700  0.85334  0.39035  1.0000
  C   C429      1.0  0.12723  0.99308  0.36534  1.0000
  C   C430      1.0  0.13938  0.01732  0.36722  1.0000
  H   H159      1.0  0.13564  0.98483  0.38735  1.0000
  H   H160      1.0  0.15598  0.02549  0.38996  1.0000
  C   C431      1.0  0.01620  0.13597  0.36564  1.0000
  C   C432      1.0  0.99196  0.12391  0.36747  1.0000
  H   H161      1.0  0.02446  0.15265  0.38753  1.0000
  H   H162      1.0  0.98380  0.13235  0.39012  1.0000
