data_image0
_chemical_formula_structural       NC2OCH3NC2OCH3NC2OCH3NC2OCH3CNCOCH3CNCOCH3NC2OCH3NC2OCH3CNCOCH3CNCOCH3NC2OCH3NC2OCH3NC2OCH3NC2OCH3CNCOCH3CNCOCH3CNCOCH3CNCOCH3CNCNCNCNCNCNCNCNCNCNCNCNCNCNCNCNCNCNCNCNCNCNCNCNCNCNCNCNCNCNCNCNCNCNCNCNCNCOCH3CNCOCH3CNCOCH3CNCOCH3NC2OCH3NC2OCH3CNCOCH3CNCOCH3NC2OCH3NC2OCH3CNCOCH3CNCOCH3CNCOCH3CNCOCH3NC2OCH3NC2OCH3NC2OCH3NC2OCH3NC2OCH3NC2OCH3NC2OCH3NC2OCH3CNCOCH3CNCOCH3NC2OCH3NC2OCH3CNCOCH3CNCOCH3NC2OCH3NC2OCH3NC2OCH3NC2OCH3CNCOCH3CNCOCH3CNCOCH3CNCOCH3CNCNCNCNCNCNCNCNCNCNCNCNCNCNCNCNCNCNCNCNCNCNCNCNCNCNCNCNCNCNCNCNCNCNCNCNCNCOCH3CNCOCH3CNCOCH3CNCOCH3NC2OCH3NC2OCH3CNCOCH3CNCOCH3NC2OCH3NC2OCH3CNCOCH3CNCOCH3CNCOCH3CNCOCH3NC2OCH3NC2OCH3NC2OCH3NC2OCH3
_chemical_formula_sum              "N144 C288 O72 H216"
_cell_length_a       42.2286
_cell_length_b       54.7478
_cell_length_c       14.8676
_cell_angle_alpha    90
_cell_angle_beta     90
_cell_angle_gamma    90

_space_group_name_H-M_alt    "P 1"
_space_group_IT_number       1

loop_
  _space_group_symop_operation_xyz
  'x, y, z'

loop_
  _atom_site_type_symbol
  _atom_site_label
  _atom_site_symmetry_multiplicity
  _atom_site_fract_x
  _atom_site_fract_y
  _atom_site_fract_z
  _atom_site_occupancy
  N   N1        1.0  0.23695  0.19148  0.28809  1.0000
  C   C1        1.0  0.26861  0.19352  0.28448  1.0000
  C   C2        1.0  0.28727  0.17286  0.30743  1.0000
  O   O1        1.0  0.27959  0.21638  0.26391  1.0000
  C   C3        1.0  0.28372  0.22007  0.16890  1.0000
  H   H1        1.0  0.29189  0.23873  0.15849  1.0000
  H   H2        1.0  0.26147  0.21776  0.13234  1.0000
  H   H3        1.0  0.30153  0.20766  0.14138  1.0000
  N   N2        1.0  0.27343  0.85640  0.33862  1.0000
  C   C4        1.0  0.24109  0.85892  0.33913  1.0000
  C   C5        1.0  0.22207  0.83779  0.34970  1.0000
  O   O2        1.0  0.22795  0.88151  0.32767  1.0000
  C   C6        1.0  0.22586  0.88866  0.23478  1.0000
  H   H4        1.0  0.21484  0.90665  0.23183  1.0000
  H   H5        1.0  0.21119  0.87599  0.19613  1.0000
  H   H6        1.0  0.24929  0.88995  0.20392  1.0000
  N   N3        1.0  0.48835  0.69359  0.33637  1.0000
  C   C7        1.0  0.01985  0.69663  0.33272  1.0000
  C   C8        1.0  0.03935  0.67572  0.34338  1.0000
  O   O3        1.0  0.02988  0.72022  0.32116  1.0000
  C   C9        1.0  0.03108  0.72754  0.22828  1.0000
  H   H7        1.0  0.03978  0.74628  0.22548  1.0000
  H   H8        1.0  0.00759  0.72708  0.19743  1.0000
  H   H9        1.0  0.04727  0.71605  0.18957  1.0000
  N   N4        1.0  0.02311  0.31495  0.34196  1.0000
  C   C10       1.0  0.49164  0.31188  0.33642  1.0000
  C   C11       1.0  0.47202  0.33278  0.34512  1.0000
  O   O4        1.0  0.48171  0.28828  0.32440  1.0000
  C   C12       1.0  0.48107  0.28098  0.23143  1.0000
  H   H10       1.0  0.47242  0.26224  0.22816  1.0000
  H   H11       1.0  0.50474  0.28147  0.20173  1.0000
  H   H12       1.0  0.46510  0.29247  0.19197  1.0000
  C   C13       1.0  0.06060  0.10911  0.36113  1.0000
  N   N5        1.0  0.11508  0.12062  0.34157  1.0000
  C   C14       1.0  0.09258  0.10258  0.34517  1.0000
  O   O5        1.0  0.10140  0.07882  0.33217  1.0000
  C   C15       1.0  0.10510  0.07255  0.23885  1.0000
  H   H13       1.0  0.11169  0.05333  0.23489  1.0000
  H   H14       1.0  0.12387  0.08329  0.20723  1.0000
  H   H15       1.0  0.08301  0.07503  0.20162  1.0000
  C   C16       1.0  0.45083  0.89868  0.32146  1.0000
  N   N6        1.0  0.42868  0.85851  0.31016  1.0000
  C   C17       1.0  0.45430  0.87321  0.30484  1.0000
  O   O6        1.0  0.48170  0.86182  0.27938  1.0000
  C   C18       1.0  0.48394  0.85927  0.18318  1.0000
  H   H16       1.0  0.50565  0.84930  0.16788  1.0000
  H   H17       1.0  0.48522  0.87703  0.15014  1.0000
  H   H18       1.0  0.46419  0.84883  0.15557  1.0000
  N   N7        1.0  0.41960  0.10157  0.35260  1.0000
  C   C19       1.0  0.39316  0.11605  0.34622  1.0000
  C   C20       1.0  0.39622  0.14167  0.35798  1.0000
  O   O7        1.0  0.36462  0.10548  0.32716  1.0000
  C   C21       1.0  0.36023  0.10066  0.23290  1.0000
  H   H19       1.0  0.33682  0.09263  0.22390  1.0000
  H   H20       1.0  0.37780  0.08768  0.20777  1.0000
  H   H21       1.0  0.36130  0.11745  0.19319  1.0000
  N   N8        1.0  0.05663  0.87736  0.30987  1.0000
  C   C22       1.0  0.07874  0.85956  0.30988  1.0000
  C   C23       1.0  0.11065  0.86600  0.32819  1.0000
  O   O8        1.0  0.06780  0.83653  0.29175  1.0000
  C   C24       1.0  0.07156  0.82954  0.19892  1.0000
  H   H22       1.0  0.06007  0.81192  0.18943  1.0000
  H   H23       1.0  0.09644  0.82759  0.18085  1.0000
  H   H24       1.0  0.06056  0.84269  0.15304  1.0000
  C   C25       1.0  0.30983  0.60995  0.32505  1.0000
  N   N9        1.0  0.33269  0.64981  0.31131  1.0000
  C   C26       1.0  0.30695  0.63528  0.30498  1.0000
  O   O9        1.0  0.27971  0.64669  0.27851  1.0000
  C   C27       1.0  0.27525  0.64679  0.18267  1.0000
  H   H25       1.0  0.25300  0.65610  0.16824  1.0000
  H   H26       1.0  0.27370  0.62824  0.15585  1.0000
  H   H27       1.0  0.29429  0.65666  0.14864  1.0000
  C   C28       1.0  0.20126  0.39918  0.33434  1.0000
  N   N10       1.0  0.17827  0.35939  0.32049  1.0000
  C   C29       1.0  0.20399  0.37388  0.31361  1.0000
  O   O10       1.0  0.23089  0.36244  0.28470  1.0000
  C   C30       1.0  0.23436  0.36239  0.18852  1.0000
  H   H28       1.0  0.25645  0.35308  0.17217  1.0000
  H   H29       1.0  0.23564  0.38095  0.16169  1.0000
  H   H30       1.0  0.21497  0.35254  0.15602  1.0000
  N   N11       1.0  0.16974  0.60263  0.35319  1.0000
  C   C31       1.0  0.14377  0.61768  0.35176  1.0000
  C   C32       1.0  0.14817  0.64326  0.36133  1.0000
  O   O11       1.0  0.11442  0.60771  0.33926  1.0000
  C   C33       1.0  0.10735  0.60276  0.24642  1.0000
  H   H31       1.0  0.08350  0.59521  0.24282  1.0000
  H   H32       1.0  0.12373  0.58935  0.21810  1.0000
  H   H33       1.0  0.10794  0.61943  0.20594  1.0000
  N   N12       1.0  0.34184  0.40611  0.34504  1.0000
  C   C34       1.0  0.36773  0.39096  0.34351  1.0000
  C   C35       1.0  0.36328  0.36546  0.35540  1.0000
  O   O12       1.0  0.39703  0.40076  0.32851  1.0000
  C   C36       1.0  0.40354  0.40490  0.23481  1.0000
  H   H34       1.0  0.42737  0.41240  0.22917  1.0000
  H   H35       1.0  0.38700  0.41807  0.20573  1.0000
  H   H36       1.0  0.40270  0.38790  0.19634  1.0000
  N   N13       1.0  0.14982  0.27306  0.30152  1.0000
  C   C37       1.0  0.15882  0.24933  0.29074  1.0000
  C   C38       1.0  0.13924  0.23043  0.32540  1.0000
  O   O13       1.0  0.18652  0.24494  0.24591  1.0000
  C   C39       1.0  0.18227  0.24300  0.15017  1.0000
  H   H37       1.0  0.20532  0.23958  0.11977  1.0000
  H   H38       1.0  0.17286  0.25993  0.12171  1.0000
  H   H39       1.0  0.16663  0.22781  0.13272  1.0000
  N   N14       1.0  0.36226  0.73643  0.29449  1.0000
  C   C40       1.0  0.35351  0.76025  0.28528  1.0000
  C   C41       1.0  0.37341  0.77891  0.32025  1.0000
  O   O14       1.0  0.32557  0.76501  0.24221  1.0000
  C   C42       1.0  0.32934  0.76835  0.14687  1.0000
  H   H40       1.0  0.30608  0.77204  0.11809  1.0000
  H   H41       1.0  0.33882  0.75194  0.11485  1.0000
  H   H42       1.0  0.34469  0.78390  0.13181  1.0000
  C   C43       1.0  0.38549  0.27847  0.35231  1.0000
  N   N15       1.0  0.35117  0.24538  0.31640  1.0000
  C   C44       1.0  0.35650  0.26988  0.31695  1.0000
  O   O15       1.0  0.33403  0.28502  0.28117  1.0000
  C   C45       1.0  0.33790  0.28877  0.18599  1.0000
  H   H43       1.0  0.31890  0.30071  0.16296  1.0000
  H   H44       1.0  0.33630  0.27160  0.14878  1.0000
  H   H45       1.0  0.36046  0.29764  0.17078  1.0000
  C   C46       1.0  0.12556  0.73017  0.35494  1.0000
  N   N16       1.0  0.16064  0.76343  0.32729  1.0000
  C   C47       1.0  0.15545  0.73889  0.32670  1.0000
  O   O16       1.0  0.17894  0.72375  0.29666  1.0000
  C   C48       1.0  0.17849  0.72054  0.20059  1.0000
  H   H46       1.0  0.19771  0.70818  0.18250  1.0000
  H   H47       1.0  0.18230  0.73784  0.16554  1.0000
  H   H48       1.0  0.15626  0.71238  0.17790  1.0000
  C   C49       1.0  0.00303  0.97922  0.33860  1.0000
  N   N17       1.0  0.00893  0.01876  0.27124  1.0000
  C   C50       1.0  0.00860  0.99396  0.26194  1.0000
  O   O17       1.0  0.01452  0.98398  0.17929  1.0000
  C   C51       1.0  0.98677  0.98278  0.12335  1.0000
  H   H49       1.0  0.99349  0.97455  0.05938  1.0000
  H   H50       1.0  0.47725  0.00098  0.10966  1.0000
  H   H51       1.0  0.96837  0.97142  0.15376  1.0000
  C   C52       1.0  0.25712  0.47855  0.34623  1.0000
  N   N18       1.0  0.27963  0.51795  0.31517  1.0000
  C   C53       1.0  0.28204  0.49311  0.31124  1.0000
  O   O18       1.0  0.30827  0.48326  0.27131  1.0000
  C   C54       1.0  0.30477  0.48041  0.17561  1.0000
  H   H52       1.0  0.32653  0.47242  0.14936  1.0000
  H   H53       1.0  0.30111  0.49800  0.14241  1.0000
  H   H54       1.0  0.28520  0.46813  0.15904  1.0000
  C   C55       1.0  0.18712  0.17433  0.31441  1.0000
  N   N19       1.0  0.16464  0.15679  0.32909  1.0000
  C   C56       1.0  0.13337  0.16275  0.34091  1.0000
  N   N20       1.0  0.12558  0.18700  0.33844  1.0000
  C   C57       1.0  0.14683  0.20511  0.32317  1.0000
  N   N21       1.0  0.17705  0.19792  0.31193  1.0000
  C   C58       1.0  0.32226  0.83254  0.33984  1.0000
  N   N22       1.0  0.34359  0.85131  0.33730  1.0000
  C   C59       1.0  0.37547  0.84705  0.32944  1.0000
  N   N23       1.0  0.38535  0.82320  0.32320  1.0000
  C   C60       1.0  0.36494  0.80402  0.32277  1.0000
  N   N24       1.0  0.33416  0.80967  0.33196  1.0000
  C   C61       1.0  0.32042  0.17473  0.31996  1.0000
  N   N25       1.0  0.34120  0.15585  0.33300  1.0000
  C   C62       1.0  0.37274  0.16001  0.34905  1.0000
  N   N26       1.0  0.38256  0.18381  0.35398  1.0000
  C   C63       1.0  0.36295  0.20312  0.34219  1.0000
  N   N27       1.0  0.33249  0.19763  0.32511  1.0000
  C   C64       1.0  0.18875  0.83532  0.34789  1.0000
  N   N28       1.0  0.16657  0.85348  0.34071  1.0000
  C   C65       1.0  0.13484  0.84820  0.33701  1.0000
  N   N29       1.0  0.12632  0.82418  0.34233  1.0000
  C   C66       1.0  0.14721  0.80557  0.34929  1.0000
  N   N30       1.0  0.17793  0.81193  0.35132  1.0000
  C   C67       1.0  0.43926  0.67430  0.34609  1.0000
  N   N31       1.0  0.41748  0.65589  0.34445  1.0000
  C   C68       1.0  0.38576  0.66075  0.33700  1.0000
  N   N32       1.0  0.37644  0.68478  0.33272  1.0000
  C   C69       1.0  0.39721  0.70371  0.33778  1.0000
  N   N33       1.0  0.42793  0.69747  0.34297  1.0000
  C   C70       1.0  0.07205  0.33445  0.35387  1.0000
  N   N34       1.0  0.09362  0.35302  0.35318  1.0000
  C   C71       1.0  0.12541  0.34835  0.34681  1.0000
  N   N35       1.0  0.13499  0.32440  0.34242  1.0000
  C   C72       1.0  0.11446  0.30534  0.34673  1.0000
  N   N36       1.0  0.08362  0.31133  0.35097  1.0000
  C   C73       1.0  0.07266  0.67751  0.34759  1.0000
  N   N37       1.0  0.09334  0.65835  0.35184  1.0000
  C   C74       1.0  0.12533  0.66212  0.35746  1.0000
  N   N38       1.0  0.13597  0.68577  0.35856  1.0000
  C   C75       1.0  0.11630  0.70529  0.35499  1.0000
  N   N39       1.0  0.08522  0.70025  0.34993  1.0000
  C   C76       1.0  0.43869  0.33097  0.34714  1.0000
  N   N40       1.0  0.41805  0.35019  0.34907  1.0000
  C   C77       1.0  0.38602  0.34650  0.35295  1.0000
  N   N41       1.0  0.37529  0.32289  0.35447  1.0000
  C   C78       1.0  0.39492  0.30330  0.35301  1.0000
  N   N42       1.0  0.42607  0.30824  0.34974  1.0000
  C   C79       1.0  0.03357  0.09370  0.36205  1.0000
  N   N43       1.0  0.03236  0.06886  0.35371  1.0000
  C   C80       1.0  0.00410  0.05653  0.35369  1.0000
  N   N44       1.0  0.47644  0.06955  0.36016  1.0000
  C   C81       1.0  0.47638  0.09441  0.36840  1.0000
  N   N45       1.0  0.00525  0.10512  0.36918  1.0000
  C   C82       1.0  0.47711  0.91492  0.32376  1.0000
  N   N46       1.0  0.47654  0.93979  0.33259  1.0000
  C   C83       1.0  0.50394  0.95330  0.33569  1.0000
  N   N47       1.0  0.03254  0.94149  0.33167  1.0000
  C   C84       1.0  0.03435  0.91668  0.32409  1.0000
  N   N48       1.0  0.50628  0.90482  0.32014  1.0000
  C   C85       1.0  0.28318  0.59433  0.33341  1.0000
  N   N49       1.0  0.28247  0.56940  0.33824  1.0000
  C   C86       1.0  0.25463  0.55664  0.34865  1.0000
  N   N50       1.0  0.22701  0.56978  0.35639  1.0000
  C   C87       1.0  0.22663  0.59471  0.35642  1.0000
  N   N51       1.0  0.25497  0.60549  0.34375  1.0000
  C   C88       1.0  0.22802  0.41479  0.33970  1.0000
  N   N52       1.0  0.22887  0.43973  0.34332  1.0000
  C   C89       1.0  0.25699  0.45240  0.34637  1.0000
  N   N53       1.0  0.28475  0.43928  0.34990  1.0000
  C   C90       1.0  0.28502  0.41435  0.35245  1.0000
  N   N54       1.0  0.25638  0.40364  0.34565  1.0000
  C   C91       1.0  0.22025  0.17102  0.30765  1.0000
  N   N55       1.0  0.27101  0.15171  0.32370  1.0000
  C   C92       1.0  0.23860  0.14977  0.32355  1.0000
  O   O19       1.0  0.22476  0.12787  0.34356  1.0000
  C   C93       1.0  0.22370  0.12285  0.43847  1.0000
  H   H55       1.0  0.21193  0.10532  0.44805  1.0000
  H   H56       1.0  0.21019  0.13675  0.47472  1.0000
  H   H57       1.0  0.24749  0.12155  0.46703  1.0000
  C   C94       1.0  0.28900  0.83463  0.34794  1.0000
  N   N56       1.0  0.23817  0.81662  0.36141  1.0000
  C   C95       1.0  0.26970  0.81378  0.36292  1.0000
  O   O20       1.0  0.27988  0.79031  0.37630  1.0000
  C   C96       1.0  0.28313  0.78404  0.46978  1.0000
  H   H58       1.0  0.29173  0.76530  0.47386  1.0000
  H   H59       1.0  0.26039  0.78501  0.50473  1.0000
  H   H60       1.0  0.30026  0.79585  0.50364  1.0000
  C   C97       1.0  0.47259  0.67221  0.34695  1.0000
  N   N57       1.0  0.02410  0.65388  0.35267  1.0000
  C   C98       1.0  0.49185  0.65115  0.35467  1.0000
  O   O21       1.0  0.47933  0.62838  0.36661  1.0000
  C   C99       1.0  0.48219  0.61992  0.45790  1.0000
  H   H61       1.0  0.47379  0.60114  0.46054  1.0000
  H   H62       1.0  0.46768  0.63094  0.50329  1.0000
  H   H63       1.0  0.50674  0.61999  0.48125  1.0000
  C   C100      1.0  0.03871  0.33640  0.35289  1.0000
  N   N58       1.0  0.48713  0.35467  0.35464  1.0000
  C   C101      1.0  0.01935  0.35745  0.35870  1.0000
  O   O22       1.0  0.03176  0.38028  0.36984  1.0000
  C   C102      1.0  0.02855  0.38910  0.46054  1.0000
  H   H64       1.0  0.03720  0.40783  0.46253  1.0000
  H   H65       1.0  0.04267  0.37815  0.50713  1.0000
  H   H66       1.0  0.00387  0.38929  0.48277  1.0000
  N   N59       1.0  0.05546  0.13336  0.37516  1.0000
  C   C103      1.0  0.07751  0.15127  0.37394  1.0000
  C   C104      1.0  0.10927  0.14500  0.35307  1.0000
  O   O23       1.0  0.06678  0.17438  0.39142  1.0000
  C   C105      1.0  0.07042  0.18141  0.48420  1.0000
  H   H67       1.0  0.05972  0.19938  0.49290  1.0000
  H   H68       1.0  0.09533  0.18271  0.50313  1.0000
  H   H69       1.0  0.05857  0.16867  0.52967  1.0000
  N   N60       1.0  0.42055  0.90633  0.33742  1.0000
  C   C106      1.0  0.39460  0.89125  0.34086  1.0000
  C   C107      1.0  0.39867  0.86574  0.32785  1.0000
  O   O24       1.0  0.36549  0.90127  0.35661  1.0000
  C   C108      1.0  0.35935  0.90544  0.45049  1.0000
  H   H70       1.0  0.33564  0.91311  0.45680  1.0000
  H   H71       1.0  0.37616  0.91847  0.47917  1.0000
  H   H72       1.0  0.36010  0.88841  0.48889  1.0000
  C   C109      1.0  0.44944  0.10994  0.37061  1.0000
  N   N61       1.0  0.42581  0.14957  0.37810  1.0000
  C   C110      1.0  0.45187  0.13548  0.38662  1.0000
  O   O25       1.0  0.47887  0.14761  0.41091  1.0000
  C   C111      1.0  0.48149  0.15045  0.50684  1.0000
  H   H73       1.0  0.50270  0.16108  0.52085  1.0000
  H   H74       1.0  0.48384  0.13278  0.54032  1.0000
  H   H75       1.0  0.46130  0.16031  0.53500  1.0000
  C   C112      1.0  0.06169  0.90162  0.32305  1.0000
  N   N62       1.0  0.11647  0.89043  0.33834  1.0000
  C   C113      1.0  0.09376  0.90835  0.33625  1.0000
  O   O26       1.0  0.10243  0.93217  0.34817  1.0000
  C   C114      1.0  0.10689  0.93858  0.44111  1.0000
  H   H76       1.0  0.11334  0.95784  0.44429  1.0000
  H   H77       1.0  0.12603  0.92798  0.47156  1.0000
  H   H78       1.0  0.08515  0.93602  0.47992  1.0000
  N   N63       1.0  0.33975  0.60200  0.34294  1.0000
  C   C115      1.0  0.36593  0.61677  0.34654  1.0000
  C   C116      1.0  0.36234  0.64230  0.33242  1.0000
  O   O27       1.0  0.39424  0.60653  0.37032  1.0000
  C   C117      1.0  0.39620  0.60138  0.46513  1.0000
  H   H79       1.0  0.41843  0.59196  0.47794  1.0000
  H   H80       1.0  0.37706  0.58941  0.48776  1.0000
  H   H81       1.0  0.39595  0.61823  0.50454  1.0000
  N   N64       1.0  0.17141  0.40713  0.35350  1.0000
  C   C118      1.0  0.14522  0.39236  0.35770  1.0000
  C   C119      1.0  0.14874  0.36687  0.34276  1.0000
  O   O28       1.0  0.11697  0.40251  0.38248  1.0000
  C   C120      1.0  0.11506  0.40702  0.47774  1.0000
  H   H82       1.0  0.09274  0.41621  0.49164  1.0000
  H   H83       1.0  0.13413  0.41894  0.50116  1.0000
  H   H84       1.0  0.11553  0.38992  0.51568  1.0000
  C   C121      1.0  0.20017  0.61051  0.36454  1.0000
  N   N65       1.0  0.17829  0.65061  0.37656  1.0000
  C   C122      1.0  0.20385  0.63596  0.38084  1.0000
  O   O29       1.0  0.23155  0.64747  0.40241  1.0000
  C   C123      1.0  0.23731  0.64866  0.49762  1.0000
  H   H85       1.0  0.25988  0.65791  0.50810  1.0000
  H   H86       1.0  0.23895  0.63043  0.52727  1.0000
  H   H87       1.0  0.21890  0.65911  0.53205  1.0000
  C   C124      1.0  0.31145  0.39842  0.35879  1.0000
  N   N66       1.0  0.33324  0.35831  0.37281  1.0000
  C   C125      1.0  0.30780  0.37308  0.37739  1.0000
  O   O30       1.0  0.28033  0.36177  0.40248  1.0000
  C   C126      1.0  0.27568  0.36109  0.49826  1.0000
  H   H88       1.0  0.25320  0.35200  0.51154  1.0000
  H   H89       1.0  0.27452  0.37947  0.52677  1.0000
  H   H90       1.0  0.29443  0.35073  0.53166  1.0000
  C   C127      1.0  0.12275  0.28015  0.34351  1.0000
  N   N67       1.0  0.11228  0.23757  0.36762  1.0000
  C   C128      1.0  0.10326  0.26122  0.37845  1.0000
  O   O31       1.0  0.07556  0.26542  0.42360  1.0000
  C   C129      1.0  0.07982  0.26719  0.51936  1.0000
  H   H91       1.0  0.05676  0.27065  0.54976  1.0000
  H   H92       1.0  0.09552  0.28232  0.53715  1.0000
  H   H93       1.0  0.08915  0.25020  0.54741  1.0000
  C   C130      1.0  0.38941  0.72903  0.33520  1.0000
  N   N68       1.0  0.40049  0.77153  0.36121  1.0000
  C   C131      1.0  0.40929  0.74775  0.37019  1.0000
  O   O32       1.0  0.43697  0.74319  0.41501  1.0000
  C   C132      1.0  0.43270  0.74076  0.51059  1.0000
  H   H94       1.0  0.45575  0.73707  0.54070  1.0000
  H   H95       1.0  0.41696  0.72554  0.52698  1.0000
  H   H96       1.0  0.42340  0.75756  0.54022  1.0000
  N   N69       1.0  0.40626  0.26125  0.38239  1.0000
  C   C133      1.0  0.40080  0.23677  0.38257  1.0000
  C   C134      1.0  0.37185  0.22811  0.34690  1.0000
  O   O33       1.0  0.42366  0.22164  0.41630  1.0000
  C   C135      1.0  0.42176  0.21894  0.51239  1.0000
  H   H97       1.0  0.44069  0.20670  0.53368  1.0000
  H   H98       1.0  0.39920  0.21088  0.53283  1.0000
  H   H99       1.0  0.42504  0.23641  0.54672  1.0000
  N   N70       1.0  0.10380  0.74730  0.37962  1.0000
  C   C136      1.0  0.10895  0.77178  0.38042  1.0000
  C   C137      1.0  0.13884  0.78052  0.35227  1.0000
  O   O34       1.0  0.08509  0.78680  0.40879  1.0000
  C   C138      1.0  0.08509  0.79039  0.50465  1.0000
  H   H100      1.0  0.06558  0.80261  0.52144  1.0000
  H   H101      1.0  0.10708  0.79888  0.52760  1.0000
  H   H102      1.0  0.08145  0.77319  0.54050  1.0000
  N   N71       1.0  0.99786  0.99106  0.41775  1.0000
  C   C139      1.0  0.99721  0.01590  0.42655  1.0000
  C   C140      1.0  0.00346  0.03060  0.35023  1.0000
  O   O35       1.0  0.99417  0.02601  0.51024  1.0000
  C   C141      1.0  0.96237  0.02533  0.54445  1.0000
  H   H103      1.0  0.96227  0.03411  0.61024  1.0000
  H   H104      1.0  0.45406  0.00656  0.55283  1.0000
  H   H105      1.0  0.94608  0.03530  0.50067  1.0000
  N   N72       1.0  0.23209  0.49100  0.38138  1.0000
  C   C142      1.0  0.22978  0.51584  0.38578  1.0000
  C   C143      1.0  0.25461  0.53044  0.35034  1.0000
  O   O36       1.0  0.20348  0.52558  0.42572  1.0000
  C   C144      1.0  0.20687  0.52818  0.52155  1.0000
  H   H106      1.0  0.18509  0.53614  0.54784  1.0000
  H   H107      1.0  0.22644  0.54039  0.53875  1.0000
  H   H108      1.0  0.21043  0.51050  0.55420  1.0000
  N   N73       1.0  0.73695  0.19148  0.28809  1.0000
  C   C145      1.0  0.76861  0.19352  0.28448  1.0000
  C   C146      1.0  0.78727  0.17286  0.30743  1.0000
  O   O37       1.0  0.77959  0.21638  0.26391  1.0000
  C   C147      1.0  0.78372  0.22007  0.16890  1.0000
  H   H109      1.0  0.79189  0.23873  0.15849  1.0000
  H   H110      1.0  0.76147  0.21776  0.13234  1.0000
  H   H111      1.0  0.80153  0.20766  0.14138  1.0000
  N   N74       1.0  0.77344  0.85640  0.33862  1.0000
  C   C148      1.0  0.74109  0.85892  0.33913  1.0000
  C   C149      1.0  0.72208  0.83779  0.34970  1.0000
  O   O38       1.0  0.72795  0.88151  0.32767  1.0000
  C   C150      1.0  0.72586  0.88866  0.23478  1.0000
  H   H112      1.0  0.71484  0.90665  0.23183  1.0000
  H   H113      1.0  0.71119  0.87599  0.19613  1.0000
  H   H114      1.0  0.74929  0.88995  0.20392  1.0000
  N   N75       1.0  0.98835  0.69359  0.33637  1.0000
  C   C151      1.0  0.51985  0.69663  0.33272  1.0000
  C   C152      1.0  0.53935  0.67572  0.34338  1.0000
  O   O39       1.0  0.52988  0.72022  0.32116  1.0000
  C   C153      1.0  0.53108  0.72754  0.22828  1.0000
  H   H115      1.0  0.53978  0.74628  0.22548  1.0000
  H   H116      1.0  0.50759  0.72708  0.19743  1.0000
  H   H117      1.0  0.54727  0.71605  0.18957  1.0000
  N   N76       1.0  0.52311  0.31495  0.34196  1.0000
  C   C154      1.0  0.99164  0.31188  0.33642  1.0000
  C   C155      1.0  0.97202  0.33278  0.34512  1.0000
  O   O40       1.0  0.98171  0.28828  0.32440  1.0000
  C   C156      1.0  0.98107  0.28098  0.23143  1.0000
  H   H118      1.0  0.97242  0.26224  0.22816  1.0000
  H   H119      1.0  0.00474  0.28147  0.20173  1.0000
  H   H120      1.0  0.96510  0.29247  0.19197  1.0000
  C   C157      1.0  0.56060  0.10911  0.36113  1.0000
  N   N77       1.0  0.61508  0.12062  0.34157  1.0000
  C   C158      1.0  0.59257  0.10258  0.34517  1.0000
  O   O41       1.0  0.60140  0.07882  0.33217  1.0000
  C   C159      1.0  0.60510  0.07255  0.23885  1.0000
  H   H121      1.0  0.61169  0.05333  0.23489  1.0000
  H   H122      1.0  0.62387  0.08329  0.20723  1.0000
  H   H123      1.0  0.58301  0.07503  0.20162  1.0000
  C   C160      1.0  0.95083  0.89868  0.32146  1.0000
  N   N78       1.0  0.92868  0.85851  0.31016  1.0000
  C   C161      1.0  0.95430  0.87321  0.30484  1.0000
  O   O42       1.0  0.98170  0.86182  0.27938  1.0000
  C   C162      1.0  0.98394  0.85927  0.18318  1.0000
  H   H124      1.0  0.00565  0.84930  0.16788  1.0000
  H   H125      1.0  0.98523  0.87703  0.15014  1.0000
  H   H126      1.0  0.96419  0.84883  0.15557  1.0000
  N   N79       1.0  0.91960  0.10157  0.35260  1.0000
  C   C163      1.0  0.89316  0.11605  0.34622  1.0000
  C   C164      1.0  0.89623  0.14167  0.35798  1.0000
  O   O43       1.0  0.86462  0.10548  0.32716  1.0000
  C   C165      1.0  0.86023  0.10066  0.23290  1.0000
  H   H127      1.0  0.83682  0.09263  0.22390  1.0000
  H   H128      1.0  0.87780  0.08768  0.20777  1.0000
  H   H129      1.0  0.86130  0.11745  0.19319  1.0000
  N   N80       1.0  0.55663  0.87736  0.30987  1.0000
  C   C166      1.0  0.57874  0.85956  0.30988  1.0000
  C   C167      1.0  0.61065  0.86600  0.32819  1.0000
  O   O44       1.0  0.56780  0.83653  0.29175  1.0000
  C   C168      1.0  0.57156  0.82954  0.19891  1.0000
  H   H130      1.0  0.56008  0.81192  0.18943  1.0000
  H   H131      1.0  0.59644  0.82759  0.18085  1.0000
  H   H132      1.0  0.56056  0.84269  0.15304  1.0000
  C   C169      1.0  0.80983  0.60995  0.32505  1.0000
  N   N81       1.0  0.83269  0.64981  0.31131  1.0000
  C   C170      1.0  0.80695  0.63528  0.30498  1.0000
  O   O45       1.0  0.77971  0.64669  0.27851  1.0000
  C   C171      1.0  0.77525  0.64679  0.18267  1.0000
  H   H133      1.0  0.75300  0.65610  0.16824  1.0000
  H   H134      1.0  0.77370  0.62824  0.15585  1.0000
  H   H135      1.0  0.79429  0.65666  0.14864  1.0000
  C   C172      1.0  0.70126  0.39918  0.33434  1.0000
  N   N82       1.0  0.67827  0.35939  0.32049  1.0000
  C   C173      1.0  0.70399  0.37388  0.31361  1.0000
  O   O46       1.0  0.73089  0.36244  0.28470  1.0000
  C   C174      1.0  0.73436  0.36239  0.18852  1.0000
  H   H136      1.0  0.75645  0.35308  0.17217  1.0000
  H   H137      1.0  0.73564  0.38095  0.16169  1.0000
  H   H138      1.0  0.71498  0.35254  0.15602  1.0000
  N   N83       1.0  0.66974  0.60263  0.35319  1.0000
  C   C175      1.0  0.64377  0.61768  0.35176  1.0000
  C   C176      1.0  0.64817  0.64326  0.36133  1.0000
  O   O47       1.0  0.61442  0.60771  0.33926  1.0000
  C   C177      1.0  0.60735  0.60276  0.24642  1.0000
  H   H139      1.0  0.58350  0.59521  0.24282  1.0000
  H   H140      1.0  0.62373  0.58935  0.21810  1.0000
  H   H141      1.0  0.60794  0.61943  0.20594  1.0000
  N   N84       1.0  0.84184  0.40611  0.34504  1.0000
  C   C178      1.0  0.86773  0.39096  0.34351  1.0000
  C   C179      1.0  0.86328  0.36546  0.35540  1.0000
  O   O48       1.0  0.89703  0.40076  0.32851  1.0000
  C   C180      1.0  0.90354  0.40490  0.23481  1.0000
  H   H142      1.0  0.92737  0.41240  0.22917  1.0000
  H   H143      1.0  0.88700  0.41807  0.20573  1.0000
  H   H144      1.0  0.90270  0.38790  0.19634  1.0000
  N   N85       1.0  0.64982  0.27306  0.30152  1.0000
  C   C181      1.0  0.65882  0.24933  0.29074  1.0000
  C   C182      1.0  0.63924  0.23043  0.32540  1.0000
  O   O49       1.0  0.68653  0.24494  0.24591  1.0000
  C   C183      1.0  0.68227  0.24300  0.15017  1.0000
  H   H145      1.0  0.70532  0.23958  0.11977  1.0000
  H   H146      1.0  0.67286  0.25993  0.12171  1.0000
  H   H147      1.0  0.66663  0.22781  0.13272  1.0000
  N   N86       1.0  0.86226  0.73643  0.29449  1.0000
  C   C184      1.0  0.85351  0.76025  0.28528  1.0000
  C   C185      1.0  0.87342  0.77891  0.32025  1.0000
  O   O50       1.0  0.82557  0.76501  0.24221  1.0000
  C   C186      1.0  0.82934  0.76835  0.14687  1.0000
  H   H148      1.0  0.80608  0.77204  0.11809  1.0000
  H   H149      1.0  0.83882  0.75194  0.11485  1.0000
  H   H150      1.0  0.84469  0.78390  0.13181  1.0000
  C   C187      1.0  0.88549  0.27847  0.35231  1.0000
  N   N87       1.0  0.85117  0.24538  0.31640  1.0000
  C   C188      1.0  0.85650  0.26988  0.31695  1.0000
  O   O51       1.0  0.83403  0.28502  0.28117  1.0000
  C   C189      1.0  0.83790  0.28877  0.18599  1.0000
  H   H151      1.0  0.81890  0.30071  0.16296  1.0000
  H   H152      1.0  0.83630  0.27160  0.14878  1.0000
  H   H153      1.0  0.86046  0.29764  0.17078  1.0000
  C   C190      1.0  0.62556  0.73017  0.35494  1.0000
  N   N88       1.0  0.66064  0.76343  0.32729  1.0000
  C   C191      1.0  0.65545  0.73889  0.32670  1.0000
  O   O52       1.0  0.67894  0.72375  0.29666  1.0000
  C   C192      1.0  0.67849  0.72054  0.20059  1.0000
  H   H154      1.0  0.69771  0.70818  0.18250  1.0000
  H   H155      1.0  0.68230  0.73784  0.16554  1.0000
  H   H156      1.0  0.65626  0.71238  0.17790  1.0000
  C   C193      1.0  0.50303  0.97922  0.33860  1.0000
  N   N89       1.0  0.50893  0.01876  0.27124  1.0000
  C   C194      1.0  0.50860  0.99396  0.26194  1.0000
  O   O53       1.0  0.51452  0.98398  0.17929  1.0000
  C   C195      1.0  0.48677  0.98278  0.12335  1.0000
  H   H157      1.0  0.49349  0.97455  0.05938  1.0000
  H   H158      1.0  0.97725  0.00098  0.10966  1.0000
  H   H159      1.0  0.46837  0.97142  0.15376  1.0000
  C   C196      1.0  0.75713  0.47855  0.34623  1.0000
  N   N90       1.0  0.77963  0.51795  0.31517  1.0000
  C   C197      1.0  0.78204  0.49311  0.31124  1.0000
  O   O54       1.0  0.80827  0.48326  0.27131  1.0000
  C   C198      1.0  0.80477  0.48041  0.17561  1.0000
  H   H160      1.0  0.82653  0.47242  0.14936  1.0000
  H   H161      1.0  0.80111  0.49800  0.14241  1.0000
  H   H162      1.0  0.78520  0.46813  0.15904  1.0000
  C   C199      1.0  0.68712  0.17433  0.31441  1.0000
  N   N91       1.0  0.66463  0.15679  0.32909  1.0000
  C   C200      1.0  0.63337  0.16275  0.34091  1.0000
  N   N92       1.0  0.62558  0.18700  0.33844  1.0000
  C   C201      1.0  0.64683  0.20511  0.32317  1.0000
  N   N93       1.0  0.67705  0.19792  0.31193  1.0000
  C   C202      1.0  0.82227  0.83254  0.33984  1.0000
  N   N94       1.0  0.84359  0.85131  0.33730  1.0000
  C   C203      1.0  0.87547  0.84705  0.32944  1.0000
  N   N95       1.0  0.88535  0.82320  0.32320  1.0000
  C   C204      1.0  0.86495  0.80402  0.32277  1.0000
  N   N96       1.0  0.83416  0.80967  0.33196  1.0000
  C   C205      1.0  0.82042  0.17473  0.31996  1.0000
  N   N97       1.0  0.84120  0.15585  0.33300  1.0000
  C   C206      1.0  0.87275  0.16001  0.34905  1.0000
  N   N98       1.0  0.88257  0.18381  0.35398  1.0000
  C   C207      1.0  0.86295  0.20312  0.34219  1.0000
  N   N99       1.0  0.83249  0.19763  0.32511  1.0000
  C   C208      1.0  0.68875  0.83532  0.34789  1.0000
  N   N100      1.0  0.66657  0.85348  0.34071  1.0000
  C   C209      1.0  0.63484  0.84820  0.33701  1.0000
  N   N101      1.0  0.62632  0.82418  0.34233  1.0000
  C   C210      1.0  0.64721  0.80557  0.34929  1.0000
  N   N102      1.0  0.67793  0.81193  0.35132  1.0000
  C   C211      1.0  0.93926  0.67430  0.34609  1.0000
  N   N103      1.0  0.91748  0.65589  0.34445  1.0000
  C   C212      1.0  0.88576  0.66075  0.33700  1.0000
  N   N104      1.0  0.87644  0.68478  0.33272  1.0000
  C   C213      1.0  0.89721  0.70371  0.33778  1.0000
  N   N105      1.0  0.92793  0.69747  0.34297  1.0000
  C   C214      1.0  0.57205  0.33445  0.35387  1.0000
  N   N106      1.0  0.59362  0.35302  0.35318  1.0000
  C   C215      1.0  0.62540  0.34835  0.34681  1.0000
  N   N107      1.0  0.63499  0.32440  0.34242  1.0000
  C   C216      1.0  0.61445  0.30534  0.34673  1.0000
  N   N108      1.0  0.58362  0.31133  0.35097  1.0000
  C   C217      1.0  0.57266  0.67751  0.34759  1.0000
  N   N109      1.0  0.59334  0.65835  0.35184  1.0000
  C   C218      1.0  0.62533  0.66212  0.35746  1.0000
  N   N110      1.0  0.63597  0.68577  0.35856  1.0000
  C   C219      1.0  0.61630  0.70529  0.35499  1.0000
  N   N111      1.0  0.58522  0.70025  0.34993  1.0000
  C   C220      1.0  0.93869  0.33097  0.34714  1.0000
  N   N112      1.0  0.91805  0.35019  0.34907  1.0000
  C   C221      1.0  0.88602  0.34650  0.35295  1.0000
  N   N113      1.0  0.87529  0.32289  0.35447  1.0000
  C   C222      1.0  0.89492  0.30330  0.35301  1.0000
  N   N114      1.0  0.92607  0.30824  0.34974  1.0000
  C   C223      1.0  0.53357  0.09370  0.36205  1.0000
  N   N115      1.0  0.53236  0.06886  0.35371  1.0000
  C   C224      1.0  0.50410  0.05653  0.35369  1.0000
  N   N116      1.0  0.97644  0.06955  0.36016  1.0000
  C   C225      1.0  0.97638  0.09441  0.36840  1.0000
  N   N117      1.0  0.50525  0.10512  0.36918  1.0000
  C   C226      1.0  0.97711  0.91492  0.32376  1.0000
  N   N118      1.0  0.97654  0.93979  0.33259  1.0000
  C   C227      1.0  0.00394  0.95330  0.33569  1.0000
  N   N119      1.0  0.53254  0.94149  0.33167  1.0000
  C   C228      1.0  0.53435  0.91668  0.32409  1.0000
  N   N120      1.0  0.00628  0.90482  0.32014  1.0000
  C   C229      1.0  0.78318  0.59433  0.33341  1.0000
  N   N121      1.0  0.78247  0.56940  0.33824  1.0000
  C   C230      1.0  0.75463  0.55664  0.34865  1.0000
  N   N122      1.0  0.72701  0.56978  0.35639  1.0000
  C   C231      1.0  0.72663  0.59471  0.35642  1.0000
  N   N123      1.0  0.75498  0.60549  0.34375  1.0000
  C   C232      1.0  0.72802  0.41479  0.33970  1.0000
  N   N124      1.0  0.72888  0.43973  0.34332  1.0000
  C   C233      1.0  0.75699  0.45240  0.34637  1.0000
  N   N125      1.0  0.78475  0.43928  0.34990  1.0000
  C   C234      1.0  0.78502  0.41435  0.35245  1.0000
  N   N126      1.0  0.75638  0.40364  0.34565  1.0000
  C   C235      1.0  0.72025  0.17102  0.30765  1.0000
  N   N127      1.0  0.77101  0.15171  0.32370  1.0000
  C   C236      1.0  0.73860  0.14977  0.32355  1.0000
  O   O55       1.0  0.72476  0.12787  0.34356  1.0000
  C   C237      1.0  0.72370  0.12285  0.43847  1.0000
  H   H163      1.0  0.71193  0.10532  0.44805  1.0000
  H   H164      1.0  0.71019  0.13675  0.47472  1.0000
  H   H165      1.0  0.74749  0.12155  0.46703  1.0000
  C   C238      1.0  0.78900  0.83463  0.34794  1.0000
  N   N128      1.0  0.73817  0.81662  0.36141  1.0000
  C   C239      1.0  0.76970  0.81378  0.36292  1.0000
  O   O56       1.0  0.77988  0.79031  0.37630  1.0000
  C   C240      1.0  0.78313  0.78404  0.46978  1.0000
  H   H166      1.0  0.79173  0.76530  0.47386  1.0000
  H   H167      1.0  0.76039  0.78501  0.50473  1.0000
  H   H168      1.0  0.80026  0.79585  0.50364  1.0000
  C   C241      1.0  0.97259  0.67221  0.34695  1.0000
  N   N129      1.0  0.52410  0.65388  0.35267  1.0000
  C   C242      1.0  0.99185  0.65115  0.35467  1.0000
  O   O57       1.0  0.97933  0.62838  0.36661  1.0000
  C   C243      1.0  0.98219  0.61992  0.45790  1.0000
  H   H169      1.0  0.97379  0.60114  0.46054  1.0000
  H   H170      1.0  0.96768  0.63094  0.50329  1.0000
  H   H171      1.0  0.00674  0.61999  0.48125  1.0000
  C   C244      1.0  0.53871  0.33640  0.35289  1.0000
  N   N130      1.0  0.98713  0.35467  0.35464  1.0000
  C   C245      1.0  0.51935  0.35745  0.35870  1.0000
  O   O58       1.0  0.53176  0.38028  0.36984  1.0000
  C   C246      1.0  0.52855  0.38910  0.46054  1.0000
  H   H172      1.0  0.53720  0.40783  0.46253  1.0000
  H   H173      1.0  0.54267  0.37815  0.50713  1.0000
  H   H174      1.0  0.50387  0.38929  0.48277  1.0000
  N   N131      1.0  0.55546  0.13336  0.37516  1.0000
  C   C247      1.0  0.57751  0.15127  0.37394  1.0000
  C   C248      1.0  0.60927  0.14500  0.35307  1.0000
  O   O59       1.0  0.56678  0.17438  0.39142  1.0000
  C   C249      1.0  0.57042  0.18141  0.48420  1.0000
  H   H175      1.0  0.55973  0.19938  0.49290  1.0000
  H   H176      1.0  0.59533  0.18271  0.50313  1.0000
  H   H177      1.0  0.55856  0.16867  0.52967  1.0000
  N   N132      1.0  0.92055  0.90633  0.33742  1.0000
  C   C250      1.0  0.89460  0.89125  0.34086  1.0000
  C   C251      1.0  0.89867  0.86574  0.32785  1.0000
  O   O60       1.0  0.86549  0.90127  0.35661  1.0000
  C   C252      1.0  0.85935  0.90544  0.45049  1.0000
  H   H178      1.0  0.83564  0.91311  0.45680  1.0000
  H   H179      1.0  0.87616  0.91847  0.47917  1.0000
  H   H180      1.0  0.86010  0.88841  0.48889  1.0000
  C   C253      1.0  0.94944  0.10994  0.37061  1.0000
  N   N133      1.0  0.92581  0.14957  0.37810  1.0000
  C   C254      1.0  0.95187  0.13548  0.38662  1.0000
  O   O61       1.0  0.97887  0.14761  0.41091  1.0000
  C   C255      1.0  0.98150  0.15045  0.50684  1.0000
  H   H181      1.0  0.00270  0.16108  0.52085  1.0000
  H   H182      1.0  0.98384  0.13278  0.54032  1.0000
  H   H183      1.0  0.96130  0.16031  0.53500  1.0000
  C   C256      1.0  0.56169  0.90162  0.32305  1.0000
  N   N134      1.0  0.61647  0.89043  0.33834  1.0000
  C   C257      1.0  0.59376  0.90835  0.33625  1.0000
  O   O62       1.0  0.60244  0.93217  0.34817  1.0000
  C   C258      1.0  0.60689  0.93858  0.44111  1.0000
  H   H184      1.0  0.61334  0.95784  0.44429  1.0000
  H   H185      1.0  0.62603  0.92798  0.47156  1.0000
  H   H186      1.0  0.58516  0.93602  0.47992  1.0000
  N   N135      1.0  0.83975  0.60200  0.34294  1.0000
  C   C259      1.0  0.86593  0.61677  0.34654  1.0000
  C   C260      1.0  0.86233  0.64230  0.33242  1.0000
  O   O63       1.0  0.89424  0.60653  0.37032  1.0000
  C   C261      1.0  0.89620  0.60138  0.46513  1.0000
  H   H187      1.0  0.91843  0.59196  0.47794  1.0000
  H   H188      1.0  0.87706  0.58941  0.48776  1.0000
  H   H189      1.0  0.89595  0.61823  0.50454  1.0000
  N   N136      1.0  0.67141  0.40713  0.35350  1.0000
  C   C262      1.0  0.64522  0.39236  0.35770  1.0000
  C   C263      1.0  0.64874  0.36687  0.34276  1.0000
  O   O64       1.0  0.61697  0.40251  0.38248  1.0000
  C   C264      1.0  0.61506  0.40702  0.47774  1.0000
  H   H190      1.0  0.59275  0.41621  0.49164  1.0000
  H   H191      1.0  0.63413  0.41894  0.50116  1.0000
  H   H192      1.0  0.61553  0.38992  0.51568  1.0000
  C   C265      1.0  0.70017  0.61051  0.36454  1.0000
  N   N137      1.0  0.67829  0.65061  0.37656  1.0000
  C   C266      1.0  0.70385  0.63596  0.38084  1.0000
  O   O65       1.0  0.73155  0.64747  0.40241  1.0000
  C   C267      1.0  0.73732  0.64866  0.49762  1.0000
  H   H193      1.0  0.75988  0.65791  0.50810  1.0000
  H   H194      1.0  0.73896  0.63043  0.52727  1.0000
  H   H195      1.0  0.71890  0.65911  0.53205  1.0000
  C   C268      1.0  0.81145  0.39842  0.35879  1.0000
  N   N138      1.0  0.83324  0.35831  0.37281  1.0000
  C   C269      1.0  0.80780  0.37308  0.37739  1.0000
  O   O66       1.0  0.78033  0.36177  0.40248  1.0000
  C   C270      1.0  0.77569  0.36109  0.49826  1.0000
  H   H196      1.0  0.75320  0.35200  0.51154  1.0000
  H   H197      1.0  0.77451  0.37947  0.52677  1.0000
  H   H198      1.0  0.79443  0.35073  0.53166  1.0000
  C   C271      1.0  0.62275  0.28015  0.34351  1.0000
  N   N139      1.0  0.61228  0.23757  0.36762  1.0000
  C   C272      1.0  0.60326  0.26122  0.37845  1.0000
  O   O67       1.0  0.57556  0.26542  0.42360  1.0000
  C   C273      1.0  0.57982  0.26719  0.51936  1.0000
  H   H199      1.0  0.55675  0.27064  0.54976  1.0000
  H   H200      1.0  0.59552  0.28232  0.53715  1.0000
  H   H201      1.0  0.58915  0.25020  0.54741  1.0000
  C   C274      1.0  0.88941  0.72903  0.33520  1.0000
  N   N140      1.0  0.90049  0.77153  0.36121  1.0000
  C   C275      1.0  0.90929  0.74775  0.37019  1.0000
  O   O68       1.0  0.93697  0.74319  0.41501  1.0000
  C   C276      1.0  0.93270  0.74076  0.51059  1.0000
  H   H202      1.0  0.95574  0.73707  0.54070  1.0000
  H   H203      1.0  0.91696  0.72554  0.52698  1.0000
  H   H204      1.0  0.92340  0.75756  0.54022  1.0000
  N   N141      1.0  0.90626  0.26125  0.38239  1.0000
  C   C277      1.0  0.90080  0.23677  0.38257  1.0000
  C   C278      1.0  0.87186  0.22811  0.34690  1.0000
  O   O69       1.0  0.92366  0.22164  0.41630  1.0000
  C   C279      1.0  0.92176  0.21894  0.51239  1.0000
  H   H205      1.0  0.94069  0.20670  0.53368  1.0000
  H   H206      1.0  0.89920  0.21088  0.53283  1.0000
  H   H207      1.0  0.92504  0.23641  0.54672  1.0000
  N   N142      1.0  0.60380  0.74730  0.37962  1.0000
  C   C280      1.0  0.60895  0.77178  0.38042  1.0000
  C   C281      1.0  0.63884  0.78052  0.35227  1.0000
  O   O70       1.0  0.58509  0.78680  0.40879  1.0000
  C   C282      1.0  0.58509  0.79039  0.50465  1.0000
  H   H208      1.0  0.56558  0.80261  0.52144  1.0000
  H   H209      1.0  0.60708  0.79888  0.52760  1.0000
  H   H210      1.0  0.58145  0.77319  0.54050  1.0000
  N   N143      1.0  0.49786  0.99106  0.41775  1.0000
  C   C283      1.0  0.49721  0.01590  0.42655  1.0000
  C   C284      1.0  0.50346  0.03060  0.35023  1.0000
  O   O71       1.0  0.49417  0.02601  0.51024  1.0000
  C   C285      1.0  0.46237  0.02533  0.54445  1.0000
  H   H211      1.0  0.46227  0.03411  0.61024  1.0000
  H   H212      1.0  0.95406  0.00656  0.55283  1.0000
  H   H213      1.0  0.44608  0.03530  0.50067  1.0000
  N   N144      1.0  0.73209  0.49100  0.38138  1.0000
  C   C286      1.0  0.72978  0.51584  0.38578  1.0000
  C   C287      1.0  0.75461  0.53044  0.35034  1.0000
  O   O72       1.0  0.70348  0.52558  0.42572  1.0000
  C   C288      1.0  0.70687  0.52818  0.52155  1.0000
  H   H214      1.0  0.68509  0.53614  0.54784  1.0000
  H   H215      1.0  0.72644  0.54039  0.53875  1.0000
  H   H216      1.0  0.71043  0.51050  0.55420  1.0000
