data_image0
_chemical_formula_structural       N2C4NH3C4NH3C4NH3N8C4NH3C4NH3N2C4NH3C4NH3C4NH3N8C4NH3C4NH3N4C4NH3C4NH3N4C4NH3C4NH3N4C4NH3C4NH3N4C4NH3C4NH3CNCNCNCNCNCNCNCNCNCNCNCNCNCNCNCNCNCNCNCNCNCNCNCNCNCNCNCNCNCNCNCNCNCNCNCNCNCNCNCNCNCNCNCNCNCNCNCNCNCNCNCNCNCNCNCNCNCNCNCNCNCNCNCNCNCNCNCNCNCNCNCNC4NH3N6C4NH3C4NH3C4NH3C4NH3N4C4NH3N6C4NH3C4NH3C4NH3C4NH3N4C4NH3C4NH3N4C4NH3C4NH3N4C4NH3C4NH3N4C4NH3C4NH3N4
_chemical_formula_sum              "N180 C216 H108"
_cell_length_a       41.7767
_cell_length_b       53.1188
_cell_length_c       14.7873
_cell_angle_alpha    90
_cell_angle_beta     90
_cell_angle_gamma    90

_space_group_name_H-M_alt    "P 1"
_space_group_IT_number       1

loop_
  _space_group_symop_operation_xyz
  'x, y, z'

loop_
  _atom_site_type_symbol
  _atom_site_label
  _atom_site_symmetry_multiplicity
  _atom_site_fract_x
  _atom_site_fract_y
  _atom_site_fract_z
  _atom_site_occupancy
  N   N1        1.0  0.51745  0.02662  0.33940  1.0000
  N   N2        1.0  0.53481  0.00604  0.33621  1.0000
  C   C1        1.0  0.99013  0.48350  0.33309  1.0000
  C   C2        1.0  0.02049  0.48339  0.29115  1.0000
  C   C3        1.0  0.03888  0.50569  0.28353  1.0000
  C   C4        1.0  0.02672  0.52804  0.32466  1.0000
  N   N3        1.0  0.06622  0.50479  0.23345  1.0000
  H   H1        1.0  0.07279  0.48934  0.20322  1.0000
  H   H2        1.0  0.07727  0.52000  0.21512  1.0000
  H   H3        1.0  0.02865  0.46720  0.26147  1.0000
  C   C5        1.0  0.38599  0.07193  0.34668  1.0000
  C   C6        1.0  0.36756  0.05120  0.31716  1.0000
  C   C7        1.0  0.33358  0.05266  0.31222  1.0000
  C   C8        1.0  0.31849  0.07536  0.34180  1.0000
  N   N4        1.0  0.31760  0.03265  0.27673  1.0000
  H   H4        1.0  0.32903  0.01786  0.25497  1.0000
  H   H5        1.0  0.29486  0.03307  0.26504  1.0000
  H   H6        1.0  0.37906  0.03522  0.29612  1.0000
  C   C9        1.0  0.62981  0.94361  0.34920  1.0000
  C   C10       1.0  0.64840  0.96504  0.32812  1.0000
  C   C11       1.0  0.68248  0.96370  0.32413  1.0000
  C   C12       1.0  0.69755  0.94017  0.34420  1.0000
  N   N5        1.0  0.69868  0.98483  0.29965  1.0000
  H   H7        1.0  0.68740  0.00043  0.28539  1.0000
  H   H8        1.0  0.72161  0.98512  0.29255  1.0000
  H   H9        1.0  0.63697  0.98160  0.31364  1.0000
  N   N6        1.0  0.17589  0.59395  0.32929  1.0000
  N   N7        1.0  0.14475  0.59267  0.32725  1.0000
  N   N8        1.0  0.83721  0.42058  0.33397  1.0000
  N   N9        1.0  0.86829  0.42205  0.33190  1.0000
  N   N10       1.0  0.50709  0.12713  0.33876  1.0000
  N   N11       1.0  0.51793  0.15037  0.33492  1.0000
  N   N12       1.0  0.51000  0.88527  0.34251  1.0000
  N   N13       1.0  0.49862  0.86219  0.34027  1.0000
  C   C13       1.0  0.01032  0.67016  0.31659  1.0000
  C   C14       1.0  0.03647  0.66398  0.26018  1.0000
  C   C15       1.0  0.04797  0.63902  0.25374  1.0000
  C   C16       1.0  0.03309  0.62029  0.30842  1.0000
  N   N14       1.0  0.07218  0.63412  0.19461  1.0000
  H   H10       1.0  0.08102  0.64731  0.15631  1.0000
  H   H11       1.0  0.07850  0.61699  0.18030  1.0000
  H   H12       1.0  0.04723  0.67780  0.22264  1.0000
  C   C17       1.0  0.00198  0.34294  0.31194  1.0000
  C   C18       1.0  0.97464  0.34882  0.25966  1.0000
  C   C19       1.0  0.96244  0.37362  0.25508  1.0000
  C   C20       1.0  0.97795  0.39251  0.30754  1.0000
  N   N15       1.0  0.93715  0.37821  0.19935  1.0000
  H   H13       1.0  0.92797  0.36489  0.16227  1.0000
  H   H14       1.0  0.93030  0.39523  0.18564  1.0000
  H   H15       1.0  0.96350  0.33490  0.22355  1.0000
  N   N16       1.0  0.52858  0.49416  0.34980  1.0000
  N   N17       1.0  0.49883  0.48638  0.34632  1.0000
  C   C21       1.0  0.04121  0.00122  0.32679  1.0000
  C   C22       1.0  0.03404  0.02578  0.29637  1.0000
  C   C23       1.0  0.00201  0.03427  0.28895  1.0000
  C   C24       1.0  0.97720  0.01766  0.31795  1.0000
  N   N18       1.0  0.99691  0.05728  0.25093  1.0000
  H   H16       1.0  0.01468  0.06758  0.22970  1.0000
  H   H17       1.0  0.97577  0.06276  0.23279  1.0000
  H   H18       1.0  0.05222  0.03736  0.27591  1.0000
  C   C25       1.0  0.38680  0.37942  0.34565  1.0000
  C   C26       1.0  0.41548  0.38800  0.30577  1.0000
  C   C27       1.0  0.42191  0.41408  0.29635  1.0000
  C   C28       1.0  0.39950  0.43154  0.33387  1.0000
  N   N19       1.0  0.44854  0.42092  0.24921  1.0000
  H   H19       1.0  0.46238  0.40830  0.22180  1.0000
  H   H20       1.0  0.45158  0.43807  0.22862  1.0000
  H   H21       1.0  0.43132  0.37512  0.28020  1.0000
  C   C29       1.0  0.62958  0.63353  0.34778  1.0000
  C   C30       1.0  0.60153  0.62514  0.30415  1.0000
  C   C31       1.0  0.59515  0.59911  0.29361  1.0000
  C   C32       1.0  0.61689  0.58159  0.33369  1.0000
  N   N20       1.0  0.56919  0.59232  0.24352  1.0000
  H   H22       1.0  0.55577  0.60496  0.21458  1.0000
  H   H23       1.0  0.56636  0.57514  0.22287  1.0000
  H   H24       1.0  0.58610  0.63809  0.27709  1.0000
  N   N21       1.0  0.14251  0.92179  0.32505  1.0000
  N   N22       1.0  0.14868  0.89762  0.32016  1.0000
  N   N23       1.0  0.87126  0.09141  0.32182  1.0000
  N   N24       1.0  0.86514  0.11558  0.31594  1.0000
  N   N25       1.0  0.33166  0.51372  0.34172  1.0000
  N   N26       1.0  0.30829  0.53021  0.33694  1.0000
  N   N27       1.0  0.67985  0.49896  0.34736  1.0000
  N   N28       1.0  0.70373  0.48294  0.34343  1.0000
  C   C33       1.0  0.20390  0.05434  0.32629  1.0000
  C   C34       1.0  0.17505  0.06048  0.28201  1.0000
  C   C35       1.0  0.15035  0.04244  0.27154  1.0000
  C   C36       1.0  0.15427  0.01842  0.31383  1.0000
  N   N29       1.0  0.12498  0.04879  0.21833  1.0000
  H   H25       1.0  0.12413  0.06504  0.18796  1.0000
  H   H26       1.0  0.11046  0.03606  0.19559  1.0000
  H   H27       1.0  0.17269  0.07786  0.25276  1.0000
  C   C37       1.0  0.81338  0.95881  0.32566  1.0000
  C   C38       1.0  0.84321  0.95143  0.28961  1.0000
  C   C39       1.0  0.86884  0.96877  0.28061  1.0000
  C   C40       1.0  0.86450  0.99365  0.31559  1.0000
  N   N30       1.0  0.89541  0.96068  0.23577  1.0000
  H   H28       1.0  0.89667  0.94369  0.21121  1.0000
  H   H29       1.0  0.91164  0.97225  0.21470  1.0000
  H   H30       1.0  0.84581  0.93349  0.26527  1.0000
  N   N31       1.0  0.20614  0.17571  0.34684  1.0000
  N   N32       1.0  0.21203  0.15154  0.33896  1.0000
  N   N33       1.0  0.80820  0.83825  0.34723  1.0000
  N   N34       1.0  0.80255  0.86242  0.33884  1.0000
  C   C41       1.0  0.27404  0.64057  0.33307  1.0000
  C   C42       1.0  0.25107  0.65695  0.29489  1.0000
  C   C43       1.0  0.25750  0.68291  0.28244  1.0000
  C   C44       1.0  0.28728  0.69247  0.31511  1.0000
  N   N35       1.0  0.23542  0.69677  0.23634  1.0000
  H   H31       1.0  0.21608  0.68901  0.21238  1.0000
  H   H32       1.0  0.24040  0.71336  0.21330  1.0000
  H   H33       1.0  0.22987  0.64971  0.27182  1.0000
  C   C45       1.0  0.74031  0.37295  0.33365  1.0000
  C   C46       1.0  0.76376  0.35675  0.29691  1.0000
  C   C47       1.0  0.75762  0.33078  0.28342  1.0000
  C   C48       1.0  0.72760  0.32105  0.31367  1.0000
  N   N36       1.0  0.78023  0.31713  0.23868  1.0000
  H   H34       1.0  0.79990  0.32493  0.21709  1.0000
  H   H35       1.0  0.77589  0.30042  0.21578  1.0000
  H   H36       1.0  0.78508  0.36415  0.27542  1.0000
  N   N37       1.0  0.29202  0.30893  0.32127  1.0000
  N   N38       1.0  0.26627  0.29481  0.31784  1.0000
  N   N39       1.0  0.72287  0.70440  0.32628  1.0000
  N   N40       1.0  0.74835  0.71878  0.32172  1.0000
  C   C49       1.0  0.25771  0.77982  0.30832  1.0000
  C   C50       1.0  0.23893  0.78012  0.22915  1.0000
  C   C51       1.0  0.21163  0.79574  0.22328  1.0000
  C   C52       1.0  0.20345  0.81049  0.30025  1.0000
  N   N41       1.0  0.19440  0.79609  0.14524  1.0000
  H   H37       1.0  0.20098  0.78626  0.09288  1.0000
  H   H38       1.0  0.17703  0.80800  0.13637  1.0000
  H   H39       1.0  0.24494  0.76870  0.17595  1.0000
  C   C53       1.0  0.75682  0.23369  0.30361  1.0000
  C   C54       1.0  0.77519  0.23314  0.22374  1.0000
  C   C55       1.0  0.80238  0.21741  0.21747  1.0000
  C   C56       1.0  0.81071  0.20278  0.29453  1.0000
  N   N42       1.0  0.81934  0.21683  0.13902  1.0000
  H   H40       1.0  0.81285  0.22676  0.08679  1.0000
  H   H41       1.0  0.83683  0.20502  0.13022  1.0000
  H   H42       1.0  0.76904  0.24448  0.17046  1.0000
  N   N43       1.0  0.44938  0.29580  0.33472  1.0000
  N   N44       1.0  0.47214  0.27891  0.32732  1.0000
  N   N45       1.0  0.56572  0.71651  0.34127  1.0000
  N   N46       1.0  0.54288  0.73333  0.33387  1.0000
  C   C57       1.0  0.04369  0.75643  0.32720  1.0000
  C   C58       1.0  0.07053  0.75153  0.27215  1.0000
  C   C59       1.0  0.09460  0.76991  0.25949  1.0000
  C   C60       1.0  0.09211  0.79286  0.30928  1.0000
  N   N47       1.0  0.11784  0.76503  0.19738  1.0000
  H   H43       1.0  0.11763  0.74953  0.16208  1.0000
  H   H44       1.0  0.13139  0.77834  0.17476  1.0000
  H   H45       1.0  0.07180  0.73493  0.23708  1.0000
  C   C61       1.0  0.97054  0.25642  0.32020  1.0000
  C   C62       1.0  0.94384  0.26116  0.26441  1.0000
  C   C63       1.0  0.91978  0.24277  0.25203  1.0000
  C   C64       1.0  0.92212  0.22000  0.30289  1.0000
  N   N48       1.0  0.89671  0.24750  0.18930  1.0000
  H   H46       1.0  0.89676  0.26300  0.15402  1.0000
  H   H47       1.0  0.88279  0.23429  0.16760  1.0000
  H   H48       1.0  0.94269  0.27765  0.22860  1.0000
  N   N49       1.0  0.13647  0.28068  0.35007  1.0000
  N   N50       1.0  0.10715  0.28935  0.34460  1.0000
  N   N51       1.0  0.87753  0.73335  0.35488  1.0000
  N   N52       1.0  0.90677  0.72454  0.35035  1.0000
  C   C65       1.0  0.43312  0.77589  0.32246  1.0000
  C   C66       1.0  0.42690  0.75216  0.28298  1.0000
  C   C67       1.0  0.39531  0.74279  0.27419  1.0000
  C   C68       1.0  0.36993  0.75752  0.31112  1.0000
  N   N53       1.0  0.39114  0.72085  0.22797  1.0000
  H   H49       1.0  0.40927  0.71206  0.20114  1.0000
  H   H50       1.0  0.37018  0.71530  0.20863  1.0000
  H   H51       1.0  0.44558  0.74181  0.25779  1.0000
  C   C69       1.0  0.58191  0.23733  0.31603  1.0000
  C   C70       1.0  0.58790  0.26124  0.27761  1.0000
  C   C71       1.0  0.61941  0.27081  0.26942  1.0000
  C   C72       1.0  0.64489  0.25608  0.30575  1.0000
  N   N54       1.0  0.62342  0.29295  0.22440  1.0000
  H   H52       1.0  0.60524  0.30191  0.19860  1.0000
  H   H53       1.0  0.64434  0.29896  0.20657  1.0000
  H   H54       1.0  0.56914  0.27155  0.25282  1.0000
  C   C73       1.0  0.41993  0.07218  0.35268  1.0000
  N   N55       1.0  0.43774  0.05082  0.35348  1.0000
  C   C74       1.0  0.47006  0.05086  0.36619  1.0000
  N   N56       1.0  0.48496  0.07366  0.37616  1.0000
  C   C75       1.0  0.46798  0.09565  0.37661  1.0000
  N   N57       1.0  0.43573  0.09422  0.36502  1.0000
  C   C76       1.0  0.59576  0.94269  0.35395  1.0000
  N   N58       1.0  0.57629  0.96330  0.35152  1.0000
  C   C77       1.0  0.54382  0.96131  0.36033  1.0000
  N   N59       1.0  0.53106  0.93782  0.37220  1.0000
  C   C78       1.0  0.54951  0.91676  0.37591  1.0000
  N   N60       1.0  0.58155  0.91991  0.36609  1.0000
  C   C79       1.0  0.09432  0.57199  0.34356  1.0000
  N   N61       1.0  0.07623  0.55076  0.34220  1.0000
  C   C80       1.0  0.04385  0.55119  0.33070  1.0000
  N   N62       1.0  0.02920  0.57410  0.32194  1.0000
  C   C81       1.0  0.04648  0.59593  0.32186  1.0000
  N   N63       1.0  0.07874  0.59419  0.33263  1.0000
  C   C82       1.0  0.91874  0.44271  0.34466  1.0000
  N   N64       1.0  0.93804  0.46342  0.34667  1.0000
  C   C83       1.0  0.97049  0.46160  0.33677  1.0000
  N   N65       1.0  0.98343  0.43820  0.32434  1.0000
  C   C84       1.0  0.96514  0.41706  0.32127  1.0000
  N   N66       1.0  0.93310  0.42001  0.33198  1.0000
  C   C85       1.0  0.40456  0.45803  0.34415  1.0000
  N   N67       1.0  0.37996  0.47476  0.35683  1.0000
  C   C86       1.0  0.38522  0.49982  0.37249  1.0000
  N   N68       1.0  0.41621  0.50754  0.37339  1.0000
  C   C87       1.0  0.44161  0.49190  0.36336  1.0000
  N   N69       1.0  0.43497  0.46719  0.34976  1.0000
  C   C88       1.0  0.61057  0.55538  0.34527  1.0000
  N   N70       1.0  0.63354  0.53731  0.35652  1.0000
  C   C89       1.0  0.62602  0.51257  0.37254  1.0000
  N   N71       1.0  0.59429  0.50661  0.37704  1.0000
  C   C90       1.0  0.57053  0.52398  0.37088  1.0000
  N   N72       1.0  0.57968  0.54797  0.35454  1.0000
  C   C91       1.0  0.11022  0.95815  0.35151  1.0000
  N   N73       1.0  0.13479  0.97492  0.33905  1.0000
  C   C92       1.0  0.12948  0.99998  0.32360  1.0000
  N   N74       1.0  0.09848  0.00767  0.32263  1.0000
  C   C93       1.0  0.07311  0.99199  0.33241  1.0000
  N   N75       1.0  0.07978  0.96728  0.34586  1.0000
  C   C94       1.0  0.90421  0.05552  0.35022  1.0000
  N   N76       1.0  0.88121  0.03747  0.33915  1.0000
  C   C95       1.0  0.88867  0.01272  0.32314  1.0000
  N   N77       1.0  0.92040  0.00673  0.31858  1.0000
  C   C96       1.0  0.94419  0.02408  0.32464  1.0000
  N   N78       1.0  0.93508  0.04808  0.34094  1.0000
  C   C97       1.0  0.28508  0.08148  0.34338  1.0000
  N   N79       1.0  0.26044  0.06473  0.33666  1.0000
  C   C98       1.0  0.22915  0.07212  0.33571  1.0000
  N   N80       1.0  0.22265  0.09726  0.34306  1.0000
  C   C99       1.0  0.24624  0.11472  0.35290  1.0000
  N   N81       1.0  0.27683  0.10612  0.35240  1.0000
  C   C100      1.0  0.73093  0.93358  0.34394  1.0000
  N   N82       1.0  0.75618  0.94977  0.33629  1.0000
  C   C101      1.0  0.78726  0.94172  0.33414  1.0000
  N   N83       1.0  0.79286  0.91646  0.34112  1.0000
  C   C102      1.0  0.76878  0.89948  0.35104  1.0000
  N   N84       1.0  0.73852  0.90874  0.35191  1.0000
  C   C103      1.0  0.22929  0.58097  0.35225  1.0000
  N   N85       1.0  0.25402  0.56430  0.35916  1.0000
  C   C104      1.0  0.28528  0.57176  0.36075  1.0000
  N   N86       1.0  0.29169  0.59692  0.35390  1.0000
  C   C105      1.0  0.26807  0.61434  0.34403  1.0000
  N   N87       1.0  0.23751  0.60566  0.34387  1.0000
  C   C106      1.0  0.78362  0.43328  0.35360  1.0000
  N   N88       1.0  0.75837  0.44948  0.36088  1.0000
  C   C107      1.0  0.72728  0.44145  0.36218  1.0000
  N   N89       1.0  0.72167  0.41621  0.35469  1.0000
  C   C108      1.0  0.74576  0.39923  0.34500  1.0000
  N   N90       1.0  0.77604  0.40845  0.34500  1.0000
  C   C109      1.0  0.34228  0.32059  0.38309  1.0000
  N   N91       1.0  0.34894  0.34533  0.36838  1.0000
  C   C110      1.0  0.37976  0.35341  0.35768  1.0000
  N   N92       1.0  0.40385  0.33600  0.36315  1.0000
  C   C111      1.0  0.39804  0.31118  0.37980  1.0000
  N   N93       1.0  0.36700  0.30415  0.38785  1.0000
  C   C112      1.0  0.67301  0.69253  0.38966  1.0000
  N   N94       1.0  0.66685  0.66782  0.37300  1.0000
  C   C113      1.0  0.63618  0.65948  0.36185  1.0000
  N   N95       1.0  0.61175  0.67656  0.36845  1.0000
  C   C114      1.0  0.61710  0.70133  0.38684  1.0000
  N   N96       1.0  0.64801  0.70867  0.39536  1.0000
  C   C115      1.0  0.17248  0.82065  0.31191  1.0000
  N   N97       1.0  0.16592  0.84540  0.32685  1.0000
  C   C116      1.0  0.13512  0.85356  0.33746  1.0000
  N   N98       1.0  0.11097  0.83621  0.33180  1.0000
  C   C117      1.0  0.11667  0.81139  0.31502  1.0000
  N   N99       1.0  0.14768  0.80428  0.30705  1.0000
  C   C118      1.0  0.84160  0.19257  0.30615  1.0000
  N   N100      1.0  0.84789  0.16787  0.32240  1.0000
  C   C119      1.0  0.87860  0.15963  0.33361  1.0000
  N   N101      1.0  0.90293  0.17681  0.32732  1.0000
  C   C120      1.0  0.89744  0.20159  0.30921  1.0000
  N   N102      1.0  0.86650  0.20882  0.30070  1.0000
  C   C121      1.0  0.23225  0.26218  0.37772  1.0000
  N   N103      1.0  0.20078  0.26857  0.38018  1.0000
  C   C122      1.0  0.17737  0.25066  0.38164  1.0000
  N   N104      1.0  0.18667  0.22601  0.38029  1.0000
  C   C123      1.0  0.21794  0.21874  0.38046  1.0000
  N   N105      1.0  0.24014  0.23741  0.37923  1.0000
  C   C124      1.0  0.78200  0.75185  0.37976  1.0000
  N   N106      1.0  0.81347  0.74557  0.38327  1.0000
  C   C125      1.0  0.83676  0.76355  0.38427  1.0000
  N   N107      1.0  0.82736  0.78816  0.38156  1.0000
  C   C126      1.0  0.79604  0.79533  0.38068  1.0000
  N   N108      1.0  0.77394  0.77659  0.37990  1.0000
  C   C127      1.0  0.28221  0.76187  0.31884  1.0000
  N   N109      1.0  0.31369  0.76822  0.31656  1.0000
  C   C128      1.0  0.33707  0.75030  0.31541  1.0000
  N   N110      1.0  0.32773  0.72565  0.31694  1.0000
  C   C129      1.0  0.29644  0.71840  0.31671  1.0000
  N   N111      1.0  0.27427  0.73710  0.31762  1.0000
  C   C130      1.0  0.73246  0.25167  0.31458  1.0000
  N   N112      1.0  0.70101  0.24537  0.31132  1.0000
  C   C131      1.0  0.67770  0.26333  0.31043  1.0000
  N   N113      1.0  0.68709  0.28796  0.31310  1.0000
  C   C132      1.0  0.71840  0.29514  0.31379  1.0000
  N   N114      1.0  0.74052  0.27641  0.31449  1.0000
  C   C133      1.0  0.01197  0.31751  0.32454  1.0000
  N   N115      1.0  0.04242  0.31001  0.34523  1.0000
  C   C134      1.0  0.04967  0.28515  0.35928  1.0000
  N   N116      1.0  0.02563  0.26790  0.35212  1.0000
  C   C135      1.0  0.99519  0.27448  0.33128  1.0000
  N   N117      1.0  0.98927  0.29928  0.31776  1.0000
  C   C136      1.0  0.00117  0.69571  0.33057  1.0000
  N   N118      1.0  0.97089  0.70355  0.35121  1.0000
  C   C137      1.0  0.96415  0.72847  0.36564  1.0000
  N   N119      1.0  0.98852  0.74543  0.35885  1.0000
  C   C138      1.0  0.01884  0.73850  0.33809  1.0000
  N   N120      1.0  0.02430  0.71364  0.32399  1.0000
  C   C139      1.0  0.50259  0.81717  0.37151  1.0000
  N   N121      1.0  0.47210  0.80970  0.35106  1.0000
  C   C140      1.0  0.46480  0.78484  0.33718  1.0000
  N   N122      1.0  0.48882  0.76757  0.34423  1.0000
  C   C141      1.0  0.51928  0.77413  0.36487  1.0000
  N   N123      1.0  0.52525  0.79892  0.37826  1.0000
  C   C142      1.0  0.51350  0.19532  0.36664  1.0000
  N   N124      1.0  0.54374  0.20317  0.34563  1.0000
  C   C143      1.0  0.55040  0.22806  0.33040  1.0000
  N   N125      1.0  0.52598  0.24499  0.33677  1.0000
  C   C144      1.0  0.49568  0.23806  0.35781  1.0000
  N   N126      1.0  0.49031  0.21322  0.37274  1.0000
  C   C145      1.0  0.52390  0.98310  0.36309  1.0000
  C   C146      1.0  0.49244  0.98241  0.39795  1.0000
  C   C147      1.0  0.47377  0.00457  0.40562  1.0000
  C   C148      1.0  0.48689  0.02751  0.37146  1.0000
  N   N127      1.0  0.44515  0.00281  0.44939  1.0000
  H   H55       1.0  0.43793  0.98688  0.47486  1.0000
  H   H56       1.0  0.43368  0.01765  0.46919  1.0000
  H   H57       1.0  0.48355  0.96582  0.42269  1.0000
  N   N128      1.0  0.99713  0.52666  0.36303  1.0000
  N   N129      1.0  0.97992  0.50600  0.36627  1.0000
  N   N130      1.0  0.33843  0.09413  0.36973  1.0000
  N   N131      1.0  0.36956  0.09276  0.37201  1.0000
  N   N132      1.0  0.67740  0.92080  0.36435  1.0000
  N   N133      1.0  0.64632  0.92219  0.36670  1.0000
  C   C149      1.0  0.12829  0.57154  0.34893  1.0000
  C   C150      1.0  0.14673  0.55039  0.37422  1.0000
  C   C151      1.0  0.18074  0.55170  0.37864  1.0000
  C   C152      1.0  0.19586  0.57479  0.35329  1.0000
  N   N134      1.0  0.19671  0.53105  0.40914  1.0000
  H   H58       1.0  0.18527  0.51594  0.42773  1.0000
  H   H59       1.0  0.21953  0.53107  0.41935  1.0000
  H   H60       1.0  0.13523  0.53413  0.39221  1.0000
  C   C153      1.0  0.88470  0.44349  0.34977  1.0000
  C   C154      1.0  0.86602  0.46485  0.37106  1.0000
  C   C155      1.0  0.83195  0.46343  0.37479  1.0000
  C   C156      1.0  0.81699  0.43990  0.35413  1.0000
  N   N135      1.0  0.81565  0.48450  0.39958  1.0000
  H   H61       1.0  0.82689  0.50006  0.41458  1.0000
  H   H62       1.0  0.79275  0.48468  0.40715  1.0000
  H   H63       1.0  0.87738  0.48144  0.38573  1.0000
  C   C157      1.0  0.50445  0.16978  0.38139  1.0000
  C   C158      1.0  0.47840  0.16365  0.43823  1.0000
  C   C159      1.0  0.46686  0.13870  0.44501  1.0000
  C   C160      1.0  0.48162  0.11992  0.39027  1.0000
  N   N136      1.0  0.44269  0.13384  0.50431  1.0000
  H   H64       1.0  0.43391  0.14705  0.54261  1.0000
  H   H65       1.0  0.43630  0.11673  0.51856  1.0000
  H   H66       1.0  0.46769  0.17750  0.47572  1.0000
  C   C161      1.0  0.51268  0.84259  0.38414  1.0000
  C   C162      1.0  0.54009  0.84840  0.43628  1.0000
  C   C163      1.0  0.55232  0.87318  0.44117  1.0000
  C   C164      1.0  0.53678  0.89216  0.38916  1.0000
  N   N137      1.0  0.57763  0.87766  0.49694  1.0000
  H   H67       1.0  0.58704  0.86425  0.53313  1.0000
  H   H68       1.0  0.58475  0.89462  0.51050  1.0000
  H   H69       1.0  0.55123  0.83443  0.47218  1.0000
  N   N138      1.0  0.00753  0.62755  0.35949  1.0000
  N   N139      1.0  0.99672  0.65080  0.36301  1.0000
  N   N140      1.0  0.00468  0.38557  0.35430  1.0000
  N   N141      1.0  0.01603  0.36248  0.35625  1.0000
  C   C165      1.0  0.47350  0.50114  0.36889  1.0000
  C   C166      1.0  0.48068  0.52572  0.39916  1.0000
  C   C167      1.0  0.51271  0.53421  0.40645  1.0000
  C   C168      1.0  0.53751  0.51758  0.37754  1.0000
  N   N142      1.0  0.51785  0.55724  0.44428  1.0000
  H   H70       1.0  0.50008  0.56742  0.46622  1.0000
  H   H71       1.0  0.53899  0.56253  0.46319  1.0000
  H   H72       1.0  0.46250  0.53732  0.41948  1.0000
  N   N143      1.0  0.98612  0.99425  0.34588  1.0000
  N   N144      1.0  0.01587  0.98647  0.34944  1.0000
  N   N145      1.0  0.37235  0.42163  0.37044  1.0000
  N   N146      1.0  0.36621  0.39745  0.37525  1.0000
  N   N147      1.0  0.64357  0.59125  0.37362  1.0000
  N   N148      1.0  0.64970  0.61543  0.37939  1.0000
  C   C169      1.0  0.12812  0.87957  0.34969  1.0000
  C   C170      1.0  0.09944  0.88811  0.38966  1.0000
  C   C171      1.0  0.09296  0.91419  0.39914  1.0000
  C   C172      1.0  0.11533  0.93166  0.36158  1.0000
  N   N149      1.0  0.06635  0.92099  0.44641  1.0000
  H   H73       1.0  0.05254  0.90835  0.47384  1.0000
  H   H74       1.0  0.06328  0.93813  0.46704  1.0000
  H   H75       1.0  0.08362  0.87522  0.41523  1.0000
  C   C173      1.0  0.88527  0.13369  0.34748  1.0000
  C   C174      1.0  0.91334  0.12531  0.39106  1.0000
  C   C175      1.0  0.91969  0.09928  0.40172  1.0000
  C   C176      1.0  0.89792  0.08174  0.36187  1.0000
  N   N150      1.0  0.94564  0.09252  0.45187  1.0000
  H   H76       1.0  0.95933  0.10513  0.47996  1.0000
  H   H77       1.0  0.94878  0.07531  0.47188  1.0000
  H   H78       1.0  0.92875  0.13826  0.41816  1.0000
  C   C177      1.0  0.31060  0.55402  0.37015  1.0000
  C   C178      1.0  0.33945  0.56023  0.41430  1.0000
  C   C179      1.0  0.36423  0.54224  0.42466  1.0000
  C   C180      1.0  0.36038  0.51821  0.38244  1.0000
  N   N151      1.0  0.38964  0.54868  0.47760  1.0000
  H   H79       1.0  0.39046  0.56494  0.50790  1.0000
  H   H80       1.0  0.40424  0.53599  0.50024  1.0000
  H   H81       1.0  0.34178  0.57762  0.44349  1.0000
  C   C181      1.0  0.70119  0.45857  0.37042  1.0000
  C   C182      1.0  0.67129  0.45120  0.40607  1.0000
  C   C183      1.0  0.64570  0.46857  0.41498  1.0000
  C   C184      1.0  0.65016  0.49347  0.38031  1.0000
  N   N152      1.0  0.61902  0.46050  0.45941  1.0000
  H   H82       1.0  0.61787  0.44357  0.48445  1.0000
  H   H83       1.0  0.60312  0.47222  0.48140  1.0000
  H   H84       1.0  0.66860  0.43324  0.43010  1.0000
  N   N153      1.0  0.18299  0.01398  0.35461  1.0000
  N   N154      1.0  0.20629  0.03053  0.35948  1.0000
  N   N155      1.0  0.83485  0.99915  0.34889  1.0000
  N   N156      1.0  0.81095  0.98316  0.35293  1.0000
  C   C185      1.0  0.24023  0.14092  0.36426  1.0000
  C   C186      1.0  0.26317  0.15727  0.40276  1.0000
  C   C187      1.0  0.25675  0.18323  0.41524  1.0000
  C   C188      1.0  0.22703  0.19281  0.38227  1.0000
  N   N157      1.0  0.27879  0.19708  0.46147  1.0000
  H   H85       1.0  0.29811  0.18932  0.48561  1.0000
  H   H86       1.0  0.27381  0.21368  0.48438  1.0000
  H   H87       1.0  0.28434  0.15001  0.42597  1.0000
  C   C189      1.0  0.77419  0.87318  0.36186  1.0000
  C   C190      1.0  0.75072  0.85694  0.39825  1.0000
  C   C191      1.0  0.75682  0.83095  0.41131  1.0000
  C   C192      1.0  0.78686  0.82125  0.38106  1.0000
  N   N158      1.0  0.73418  0.81723  0.45568  1.0000
  H   H88       1.0  0.71465  0.82509  0.47796  1.0000
  H   H89       1.0  0.73875  0.80062  0.47917  1.0000
  H   H90       1.0  0.72937  0.86431  0.41969  1.0000
  N   N159      1.0  0.30819  0.67535  0.35030  1.0000
  N   N160      1.0  0.30227  0.65118  0.35814  1.0000
  N   N161      1.0  0.70629  0.33802  0.34783  1.0000
  N   N162      1.0  0.71195  0.36218  0.35657  1.0000
  C   C193      1.0  0.25682  0.28008  0.38799  1.0000
  C   C194      1.0  0.27560  0.28046  0.46713  1.0000
  C   C195      1.0  0.30302  0.29597  0.47257  1.0000
  C   C196      1.0  0.31128  0.31057  0.39531  1.0000
  N   N163      1.0  0.32030  0.29637  0.55049  1.0000
  H   H91       1.0  0.31370  0.28664  0.60308  1.0000
  H   H92       1.0  0.33780  0.30819  0.55898  1.0000
  H   H93       1.0  0.26953  0.26915  0.52059  1.0000
  C   C197      1.0  0.75763  0.73388  0.39102  1.0000
  C   C198      1.0  0.73914  0.73356  0.47069  1.0000
  C   C199      1.0  0.71204  0.71776  0.47741  1.0000
  C   C200      1.0  0.70385  0.70288  0.40079  1.0000
  N   N164      1.0  0.69503  0.71735  0.55582  1.0000
  H   H94       1.0  0.70166  0.72726  0.60795  1.0000
  H   H95       1.0  0.67790  0.70527  0.56526  1.0000
  H   H96       1.0  0.74520  0.74508  0.52358  1.0000
  N   N165      1.0  0.22271  0.80896  0.37428  1.0000
  N   N166      1.0  0.24838  0.79476  0.37805  1.0000
  N   N167      1.0  0.79184  0.20457  0.36928  1.0000
  N   N168      1.0  0.76632  0.21890  0.37354  1.0000
  C   C201      1.0  0.47083  0.25601  0.36823  1.0000
  C   C202      1.0  0.44392  0.25120  0.42311  1.0000
  C   C203      1.0  0.41991  0.26964  0.43557  1.0000
  C   C204      1.0  0.42252  0.29257  0.38567  1.0000
  N   N169      1.0  0.39660  0.26482  0.49755  1.0000
  H   H97       1.0  0.39674  0.24933  0.53289  1.0000
  H   H98       1.0  0.38309  0.27817  0.52006  1.0000
  H   H99       1.0  0.44258  0.23461  0.45829  1.0000
  C   C205      1.0  0.54391  0.75605  0.37602  1.0000
  C   C206      1.0  0.57049  0.76074  0.43227  1.0000
  C   C207      1.0  0.59456  0.74235  0.44464  1.0000
  C   C208      1.0  0.59232  0.71965  0.39336  1.0000
  N   N170      1.0  0.61757  0.74699  0.50767  1.0000
  H   H100      1.0  0.61717  0.76231  0.54388  1.0000
  H   H101      1.0  0.63104  0.73357  0.52993  1.0000
  H   H102      1.0  0.57160  0.77720  0.46828  1.0000
  N   N171      1.0  0.06529  0.79617  0.36033  1.0000
  N   N172      1.0  0.04247  0.77935  0.36798  1.0000
  N   N173      1.0  0.94882  0.21681  0.35457  1.0000
  N   N174      1.0  0.97165  0.23364  0.36196  1.0000
  C   C209      1.0  0.08132  0.27621  0.37418  1.0000
  C   C210      1.0  0.08753  0.25248  0.41370  1.0000
  C   C211      1.0  0.11912  0.24314  0.42276  1.0000
  C   C212      1.0  0.14452  0.25788  0.38592  1.0000
  N   N175      1.0  0.12328  0.22120  0.46899  1.0000
  H   H103      1.0  0.10514  0.21241  0.49570  1.0000
  H   H104      1.0  0.14422  0.21569  0.48856  1.0000
  H   H105      1.0  0.06884  0.24213  0.43879  1.0000
  C   C213      1.0  0.93261  0.73769  0.37968  1.0000
  C   C214      1.0  0.92653  0.76162  0.41774  1.0000
  C   C215      1.0  0.89498  0.77115  0.42566  1.0000
  C   C216      1.0  0.86958  0.75633  0.38935  1.0000
  N   N176      1.0  0.89086  0.79332  0.47042  1.0000
  H   H106      1.0  0.90899  0.80218  0.49690  1.0000
  H   H107      1.0  0.86990  0.79906  0.48899  1.0000
  H   H108      1.0  0.94525  0.77201  0.44246  1.0000
  N   N177      1.0  0.37799  0.78033  0.34686  1.0000
  N   N178      1.0  0.40730  0.78902  0.35217  1.0000
  N   N179      1.0  0.63703  0.23311  0.34052  1.0000
  N   N180      1.0  0.60782  0.22425  0.34535  1.0000
