data_image0
_chemical_formula_structural       C4H4C4H4C4H4C4H4C4H4C4H4C4HC4H2NO2C4HC4H2NO2C4HC4H2NO2C4HC4H2NO2C4HC4H2NO2C4HC4H2NO2C4HC4H2NO2C4HC4H2NO2C4HC4H2NO2C4HC4H2NO2C4HC4H2NO2C4HC4H2NO2C6H3C6H3C6H3C6H3C6H3C6H3C6H3C6H3C6H3C6H3C6H3C6H3C4HC4H2NO2C4HC4H2NO2C4HC4H2NO2C4HC4H2NO2C4HC4H2NO2C4HC4H2NO2C4H4C4H4C4H4C4H4C4H4C4H4C4H4C4H4C4H4C4H4C4H4C4H4
_chemical_formula_sum              "C288 H162 N18 O36"
_cell_length_a       56.7001
_cell_length_b       56.7001
_cell_length_c       14.8465
_cell_angle_alpha    90
_cell_angle_beta     90
_cell_angle_gamma    120

_space_group_name_H-M_alt    "P 1"
_space_group_IT_number       1

loop_
  _space_group_symop_operation_xyz
  'x, y, z'

loop_
  _atom_site_type_symbol
  _atom_site_label
  _atom_site_symmetry_multiplicity
  _atom_site_fract_x
  _atom_site_fract_y
  _atom_site_fract_z
  _atom_site_occupancy
  C   C1        1.0  0.22681  0.45338  0.26377  1.0000
  C   C2        1.0  0.21290  0.42470  0.26540  1.0000
  C   C3        1.0  0.20361  0.36632  0.28605  1.0000
  C   C4        1.0  0.18931  0.33760  0.28564  1.0000
  H   H1        1.0  0.21996  0.37643  0.24396  1.0000
  H   H2        1.0  0.19544  0.32781  0.24174  1.0000
  H   H3        1.0  0.22779  0.46310  0.20461  1.0000
  H   H4        1.0  0.20386  0.41440  0.20733  1.0000
  C   C5        1.0  0.55376  0.77019  0.26376  1.0000
  C   C6        1.0  0.58243  0.78496  0.26539  1.0000
  C   C7        1.0  0.64081  0.83405  0.28602  1.0000
  C   C8        1.0  0.66953  0.84849  0.28561  1.0000
  H   H5        1.0  0.63070  0.84029  0.24391  1.0000
  H   H6        1.0  0.67931  0.86440  0.24171  1.0000
  H   H7        1.0  0.54404  0.76142  0.20462  1.0000
  H   H8        1.0  0.59274  0.78621  0.20733  1.0000
  C   C9        1.0  0.23688  0.78031  0.26375  1.0000
  C   C10       1.0  0.22212  0.79422  0.26539  1.0000
  C   C11       1.0  0.17305  0.80352  0.28608  1.0000
  C   C12       1.0  0.15863  0.81783  0.28562  1.0000
  H   H9        1.0  0.16681  0.78717  0.24396  1.0000
  H   H10       1.0  0.14270  0.81168  0.24177  1.0000
  H   H11       1.0  0.24563  0.77933  0.20459  1.0000
  H   H12       1.0  0.22086  0.80326  0.20731  1.0000
  C   C13       1.0  0.78483  0.54923  0.26377  1.0000
  C   C14       1.0  0.79874  0.57790  0.26541  1.0000
  C   C15       1.0  0.80803  0.63628  0.28610  1.0000
  C   C16       1.0  0.82233  0.66500  0.28565  1.0000
  H   H13       1.0  0.79168  0.62617  0.24399  1.0000
  H   H14       1.0  0.81619  0.67478  0.24177  1.0000
  H   H15       1.0  0.78386  0.53951  0.20461  1.0000
  H   H16       1.0  0.80778  0.58820  0.20733  1.0000
  C   C17       1.0  0.45789  0.23240  0.26378  1.0000
  C   C18       1.0  0.42922  0.21764  0.26542  1.0000
  C   C19       1.0  0.37084  0.16855  0.28605  1.0000
  C   C20       1.0  0.34212  0.15412  0.28563  1.0000
  H   H17       1.0  0.38095  0.16231  0.24394  1.0000
  H   H18       1.0  0.33233  0.13820  0.24173  1.0000
  H   H19       1.0  0.46762  0.24115  0.20463  1.0000
  H   H20       1.0  0.41892  0.21638  0.20734  1.0000
  C   C21       1.0  0.77474  0.22230  0.26370  1.0000
  C   C22       1.0  0.78950  0.20839  0.26536  1.0000
  C   C23       1.0  0.83858  0.19909  0.28603  1.0000
  C   C24       1.0  0.85301  0.18480  0.28561  1.0000
  H   H21       1.0  0.84483  0.21544  0.24392  1.0000
  H   H22       1.0  0.86893  0.19093  0.24173  1.0000
  H   H23       1.0  0.76598  0.22326  0.20457  1.0000
  H   H24       1.0  0.79076  0.19934  0.20729  1.0000
  C   C25       1.0  0.23962  0.16146  0.34141  1.0000
  C   C26       1.0  0.21052  0.19071  0.33810  1.0000
  C   C27       1.0  0.22149  0.18656  0.25731  1.0000
  C   C28       1.0  0.23599  0.17215  0.26009  1.0000
  H   H25       1.0  0.24391  0.16941  0.20166  1.0000
  C   C29       1.0  0.19582  0.20521  0.33957  1.0000
  C   C30       1.0  0.16646  0.23454  0.34213  1.0000
  C   C31       1.0  0.15825  0.21150  0.28605  1.0000
  C   C32       1.0  0.17261  0.19715  0.28475  1.0000
  H   H26       1.0  0.14188  0.20514  0.24399  1.0000
  H   H27       1.0  0.16578  0.18051  0.24364  1.0000
  N   N1        1.0  0.21855  0.19755  0.17517  1.0000
  O   O1        1.0  0.20586  0.17921  0.11764  1.0000
  O   O2        1.0  0.24124  0.21466  0.14281  1.0000
  C   C33       1.0  0.84567  0.07495  0.34141  1.0000
  C   C34       1.0  0.81642  0.01660  0.33809  1.0000
  C   C35       1.0  0.82057  0.03173  0.25730  1.0000
  C   C36       1.0  0.83498  0.06063  0.26009  1.0000
  H   H28       1.0  0.83773  0.07130  0.20166  1.0000
  C   C37       1.0  0.80191  0.98740  0.33955  1.0000
  C   C38       1.0  0.77258  0.92871  0.34211  1.0000
  C   C39       1.0  0.79562  0.94354  0.28600  1.0000
  C   C40       1.0  0.80998  0.97225  0.28472  1.0000
  H   H29       1.0  0.80199  0.93353  0.24399  1.0000
  H   H30       1.0  0.82662  0.98206  0.24363  1.0000
  N   N2        1.0  0.80958  0.01780  0.17517  1.0000
  O   O3        1.0  0.82792  0.02345  0.11763  1.0000
  O   O4        1.0  0.79247  0.02338  0.14281  1.0000
  C   C41       1.0  0.93218  0.76751  0.34140  1.0000
  C   C42       1.0  0.99052  0.79660  0.33809  1.0000
  C   C43       1.0  0.97540  0.78563  0.25729  1.0000
  C   C44       1.0  0.94649  0.77113  0.26008  1.0000
  H   H31       1.0  0.93583  0.76321  0.20166  1.0000
  C   C45       1.0  0.01973  0.81131  0.33955  1.0000
  C   C46       1.0  0.07842  0.84067  0.34211  1.0000
  C   C47       1.0  0.06358  0.84887  0.28600  1.0000
  C   C48       1.0  0.03487  0.83452  0.28473  1.0000
  H   H32       1.0  0.07359  0.86525  0.24397  1.0000
  H   H33       1.0  0.02507  0.84135  0.24361  1.0000
  N   N3        1.0  0.98933  0.78857  0.17517  1.0000
  O   O5        1.0  0.98368  0.80126  0.11762  1.0000
  O   O6        1.0  0.98375  0.76588  0.14282  1.0000
  C   C49       1.0  0.77204  0.84116  0.34141  1.0000
  C   C50       1.0  0.80112  0.81190  0.33809  1.0000
  C   C51       1.0  0.79015  0.81605  0.25731  1.0000
  C   C52       1.0  0.77565  0.83046  0.26010  1.0000
  H   H34       1.0  0.76773  0.83320  0.20168  1.0000
  C   C53       1.0  0.81583  0.79740  0.33956  1.0000
  C   C54       1.0  0.84518  0.76806  0.34211  1.0000
  C   C55       1.0  0.85339  0.79111  0.28601  1.0000
  C   C56       1.0  0.83903  0.80546  0.28472  1.0000
  H   H35       1.0  0.86975  0.79746  0.24395  1.0000
  H   H36       1.0  0.84586  0.82209  0.24360  1.0000
  N   N4        1.0  0.79308  0.80505  0.17518  1.0000
  O   O7        1.0  0.80577  0.82338  0.11762  1.0000
  O   O8        1.0  0.77039  0.78794  0.14285  1.0000
  C   C57       1.0  0.16596  0.92767  0.34140  1.0000
  C   C58       1.0  0.19522  0.98601  0.33809  1.0000
  C   C59       1.0  0.19107  0.97089  0.25729  1.0000
  C   C60       1.0  0.17666  0.94199  0.26008  1.0000
  H   H37       1.0  0.17391  0.93132  0.20166  1.0000
  C   C61       1.0  0.20973  0.01522  0.33955  1.0000
  C   C62       1.0  0.23906  0.07391  0.34211  1.0000
  C   C63       1.0  0.21602  0.05907  0.28603  1.0000
  C   C64       1.0  0.20166  0.03037  0.28473  1.0000
  H   H38       1.0  0.20966  0.06909  0.24396  1.0000
  H   H39       1.0  0.18503  0.02056  0.24362  1.0000
  N   N5        1.0  0.20206  0.98483  0.17517  1.0000
  O   O9        1.0  0.18372  0.97918  0.11762  1.0000
  O   O10       1.0  0.21917  0.97924  0.14281  1.0000
  C   C65       1.0  0.07946  0.23510  0.34141  1.0000
  C   C66       1.0  0.02112  0.20601  0.33809  1.0000
  C   C67       1.0  0.03624  0.21698  0.25729  1.0000
  C   C68       1.0  0.06514  0.23148  0.26009  1.0000
  H   H40       1.0  0.07582  0.23940  0.20166  1.0000
  C   C69       1.0  0.99191  0.19131  0.33955  1.0000
  C   C70       1.0  0.93322  0.16195  0.34211  1.0000
  C   C71       1.0  0.94806  0.15375  0.28599  1.0000
  C   C72       1.0  0.97677  0.16810  0.28472  1.0000
  H   H41       1.0  0.93804  0.13737  0.24398  1.0000
  H   H42       1.0  0.98657  0.16126  0.24363  1.0000
  N   N6        1.0  0.02231  0.21404  0.17516  1.0000
  O   O11       1.0  0.02796  0.20135  0.11762  1.0000
  O   O12       1.0  0.02789  0.23673  0.14281  1.0000
  C   C73       1.0  0.23928  0.55578  0.32392  1.0000
  C   C74       1.0  0.23018  0.60105  0.33324  1.0000
  C   C75       1.0  0.24075  0.59596  0.25322  1.0000
  C   C76       1.0  0.24488  0.57330  0.24945  1.0000
  H   H43       1.0  0.25460  0.57118  0.19451  1.0000
  C   C77       1.0  0.23104  0.62648  0.34739  1.0000
  C   C78       1.0  0.24289  0.68176  0.35913  1.0000
  C   C79       1.0  0.22581  0.66440  0.29031  1.0000
  C   C80       1.0  0.21992  0.63714  0.28481  1.0000
  H   H44       1.0  0.21952  0.67208  0.23921  1.0000
  H   H45       1.0  0.20882  0.62560  0.23117  1.0000
  N   N7        1.0  0.24970  0.61486  0.18107  1.0000
  O   O13       1.0  0.23745  0.60379  0.10918  1.0000
  O   O14       1.0  0.27491  0.62568  0.16799  1.0000
  C   C81       1.0  0.45136  0.68025  0.32389  1.0000
  C   C82       1.0  0.40606  0.62591  0.33338  1.0000
  C   C83       1.0  0.41117  0.64157  0.25330  1.0000
  C   C84       1.0  0.43386  0.66833  0.24936  1.0000
  H   H46       1.0  0.43594  0.68016  0.19445  1.0000
  C   C85       1.0  0.38061  0.60137  0.34754  1.0000
  C   C86       1.0  0.32535  0.55796  0.35932  1.0000
  C   C87       1.0  0.34272  0.55818  0.29061  1.0000
  C   C88       1.0  0.36998  0.57955  0.28509  1.0000
  H   H47       1.0  0.33504  0.54425  0.23941  1.0000
  H   H48       1.0  0.38150  0.58000  0.23137  1.0000
  N   N8        1.0  0.39224  0.63159  0.18123  1.0000
  O   O15       1.0  0.40327  0.63037  0.10931  1.0000
  O   O16       1.0  0.38145  0.64601  0.16811  1.0000
  C   C89       1.0  0.32684  0.76785  0.32428  1.0000
  C   C90       1.0  0.38119  0.77689  0.33351  1.0000
  C   C91       1.0  0.36549  0.76630  0.25351  1.0000
  C   C92       1.0  0.33871  0.76219  0.24980  1.0000
  H   H49       1.0  0.32689  0.75252  0.19477  1.0000
  C   C93       1.0  0.40573  0.77598  0.34757  1.0000
  C   C94       1.0  0.44917  0.76414  0.35934  1.0000
  C   C95       1.0  0.44890  0.78125  0.29055  1.0000
  C   C96       1.0  0.42752  0.78713  0.28504  1.0000
  H   H50       1.0  0.46281  0.78749  0.23932  1.0000
  H   H51       1.0  0.42706  0.79819  0.23131  1.0000
  N   N9        1.0  0.37544  0.75734  0.18136  1.0000
  O   O17       1.0  0.37661  0.76958  0.10945  1.0000
  O   O18       1.0  0.36103  0.73213  0.16832  1.0000
  C   C97       1.0  0.77239  0.44682  0.32420  1.0000
  C   C98       1.0  0.78144  0.40155  0.33352  1.0000
  C   C99       1.0  0.77085  0.40664  0.25349  1.0000
  C   C100      1.0  0.76675  0.42931  0.24967  1.0000
  H   H52       1.0  0.75704  0.43144  0.19473  1.0000
  C   C101      1.0  0.78056  0.37611  0.34759  1.0000
  C   C102      1.0  0.76867  0.32082  0.35927  1.0000
  C   C103      1.0  0.78575  0.33818  0.29041  1.0000
  C   C104      1.0  0.79171  0.36547  0.28507  1.0000
  H   H53       1.0  0.79206  0.33052  0.23934  1.0000
  H   H54       1.0  0.80277  0.37699  0.23135  1.0000
  N   N10       1.0  0.76189  0.38772  0.18138  1.0000
  O   O19       1.0  0.77413  0.39877  0.10945  1.0000
  O   O20       1.0  0.73667  0.37691  0.16833  1.0000
  C   C105      1.0  0.56032  0.32232  0.32384  1.0000
  C   C106      1.0  0.60558  0.37667  0.33322  1.0000
  C   C107      1.0  0.60048  0.36101  0.25316  1.0000
  C   C108      1.0  0.57783  0.33422  0.24935  1.0000
  H   H55       1.0  0.57570  0.32239  0.19441  1.0000
  C   C109      1.0  0.63101  0.40123  0.34738  1.0000
  C   C110      1.0  0.68630  0.44467  0.35914  1.0000
  C   C111      1.0  0.66893  0.44439  0.29034  1.0000
  C   C112      1.0  0.64166  0.42302  0.28483  1.0000
  H   H56       1.0  0.67660  0.45836  0.23926  1.0000
  H   H57       1.0  0.63013  0.42259  0.23120  1.0000
  N   N11       1.0  0.61939  0.37098  0.18101  1.0000
  O   O21       1.0  0.60832  0.37217  0.10913  1.0000
  O   O22       1.0  0.63021  0.35659  0.16788  1.0000
  C   C113      1.0  0.68478  0.23473  0.32398  1.0000
  C   C114      1.0  0.63045  0.22567  0.33344  1.0000
  C   C115      1.0  0.64611  0.23624  0.25337  1.0000
  C   C116      1.0  0.67287  0.24031  0.24942  1.0000
  H   H58       1.0  0.68470  0.25005  0.19450  1.0000
  C   C117      1.0  0.60590  0.22657  0.34758  1.0000
  C   C118      1.0  0.56246  0.23840  0.35941  1.0000
  C   C119      1.0  0.56271  0.22128  0.29067  1.0000
  C   C120      1.0  0.58409  0.21540  0.28512  1.0000
  H   H59       1.0  0.54879  0.21503  0.23944  1.0000
  H   H60       1.0  0.58454  0.20434  0.23138  1.0000
  N   N12       1.0  0.63614  0.24520  0.18129  1.0000
  O   O23       1.0  0.63491  0.23294  0.10938  1.0000
  O   O24       1.0  0.65055  0.27041  0.16818  1.0000
  C   C121      1.0  0.10842  0.24954  0.34272  1.0000
  C   C122      1.0  0.12302  0.23537  0.34335  1.0000
  C   C123      1.0  0.15189  0.24927  0.34279  1.0000
  C   C124      1.0  0.16584  0.27817  0.34241  1.0000
  C   C125      1.0  0.15195  0.29318  0.34230  1.0000
  C   C126      1.0  0.12309  0.27831  0.34197  1.0000
  H   H61       1.0  0.18668  0.28858  0.34215  1.0000
  H   H62       1.0  0.11249  0.28857  0.34018  1.0000
  H   H63       1.0  0.11234  0.21451  0.34481  1.0000
  C   C127      1.0  0.75759  0.85568  0.34273  1.0000
  C   C128      1.0  0.77177  0.88445  0.34335  1.0000
  C   C129      1.0  0.75786  0.89941  0.34278  1.0000
  C   C130      1.0  0.72896  0.88446  0.34240  1.0000
  C   C131      1.0  0.71395  0.85556  0.34230  1.0000
  C   C132      1.0  0.72882  0.84157  0.34197  1.0000
  H   H64       1.0  0.71854  0.89489  0.34213  1.0000
  H   H65       1.0  0.71857  0.82072  0.34018  1.0000
  H   H66       1.0  0.79262  0.89462  0.34481  1.0000
  C   C133      1.0  0.15145  0.89871  0.34271  1.0000
  C   C134      1.0  0.12268  0.88411  0.34332  1.0000
  C   C135      1.0  0.10771  0.85524  0.34277  1.0000
  C   C136      1.0  0.12267  0.84129  0.34240  1.0000
  C   C137      1.0  0.15156  0.85518  0.34229  1.0000
  C   C138      1.0  0.16556  0.88404  0.34197  1.0000
  H   H67       1.0  0.11224  0.82045  0.34214  1.0000
  H   H68       1.0  0.18641  0.89465  0.34018  1.0000
  H   H69       1.0  0.11251  0.89479  0.34480  1.0000
  C   C139      1.0  0.90321  0.75306  0.34270  1.0000
  C   C140      1.0  0.88862  0.76724  0.34331  1.0000
  C   C141      1.0  0.85975  0.75334  0.34277  1.0000
  C   C142      1.0  0.84580  0.72443  0.34240  1.0000
  C   C143      1.0  0.85968  0.70942  0.34230  1.0000
  C   C144      1.0  0.88855  0.72429  0.34195  1.0000
  H   H70       1.0  0.82496  0.71402  0.34215  1.0000
  H   H71       1.0  0.89915  0.71404  0.34018  1.0000
  H   H72       1.0  0.89930  0.78809  0.34479  1.0000
  C   C145      1.0  0.25406  0.14695  0.34272  1.0000
  C   C146      1.0  0.23988  0.11817  0.34333  1.0000
  C   C147      1.0  0.25379  0.10321  0.34277  1.0000
  C   C148      1.0  0.28269  0.11816  0.34240  1.0000
  C   C149      1.0  0.29770  0.14705  0.34230  1.0000
  C   C150      1.0  0.28283  0.16105  0.34197  1.0000
  H   H73       1.0  0.29310  0.10773  0.34213  1.0000
  H   H74       1.0  0.29308  0.18190  0.34019  1.0000
  H   H75       1.0  0.21903  0.10800  0.34481  1.0000
  C   C151      1.0  0.86019  0.10391  0.34272  1.0000
  C   C152      1.0  0.88896  0.11851  0.34333  1.0000
  C   C153      1.0  0.90392  0.14738  0.34277  1.0000
  C   C154      1.0  0.88897  0.16133  0.34240  1.0000
  C   C155      1.0  0.86008  0.14744  0.34229  1.0000
  C   C156      1.0  0.84608  0.11858  0.34196  1.0000
  H   H76       1.0  0.89940  0.18217  0.34213  1.0000
  H   H77       1.0  0.82523  0.10797  0.34018  1.0000
  H   H78       1.0  0.89913  0.10783  0.34481  1.0000
  C   C157      1.0  0.29652  0.54156  0.35096  1.0000
  C   C158      1.0  0.28131  0.55491  0.34044  1.0000
  C   C159      1.0  0.25274  0.54040  0.33074  1.0000
  C   C160      1.0  0.23903  0.51165  0.33165  1.0000
  C   C161      1.0  0.25370  0.49757  0.34064  1.0000
  C   C162      1.0  0.28245  0.51275  0.34993  1.0000
  H   H79       1.0  0.21825  0.50095  0.32581  1.0000
  H   H80       1.0  0.29322  0.50279  0.35686  1.0000
  H   H81       1.0  0.29130  0.57581  0.33986  1.0000
  C   C163      1.0  0.46557  0.75170  0.35097  1.0000
  C   C164      1.0  0.45222  0.72315  0.34046  1.0000
  C   C165      1.0  0.46673  0.70909  0.33074  1.0000
  C   C166      1.0  0.49549  0.72414  0.33162  1.0000
  C   C167      1.0  0.50956  0.75289  0.34062  1.0000
  C   C168      1.0  0.49437  0.76644  0.34995  1.0000
  H   H82       1.0  0.50619  0.71406  0.32576  1.0000
  H   H83       1.0  0.50434  0.78719  0.35686  1.0000
  H   H84       1.0  0.43132  0.71225  0.33986  1.0000
  C   C169      1.0  0.25535  0.71060  0.35092  1.0000
  C   C170      1.0  0.28391  0.72581  0.34050  1.0000
  C   C171      1.0  0.29799  0.75438  0.33083  1.0000
  C   C172      1.0  0.28295  0.76810  0.33176  1.0000
  C   C173      1.0  0.25420  0.75343  0.34063  1.0000
  C   C174      1.0  0.24063  0.72468  0.34983  1.0000
  H   H85       1.0  0.29304  0.78888  0.32602  1.0000
  H   H86       1.0  0.21988  0.71391  0.35668  1.0000
  H   H87       1.0  0.29481  0.71581  0.33995  1.0000
  C   C175      1.0  0.71513  0.46105  0.35092  1.0000
  C   C176      1.0  0.73034  0.44770  0.34049  1.0000
  C   C177      1.0  0.75892  0.46220  0.33084  1.0000
  C   C178      1.0  0.77263  0.49095  0.33175  1.0000
  C   C179      1.0  0.75796  0.50504  0.34065  1.0000
  C   C180      1.0  0.72921  0.48985  0.34985  1.0000
  H   H88       1.0  0.79341  0.50165  0.32600  1.0000
  H   H89       1.0  0.71844  0.49983  0.35672  1.0000
  H   H90       1.0  0.72035  0.42680  0.33992  1.0000
  C   C181      1.0  0.54608  0.25085  0.35103  1.0000
  C   C182      1.0  0.55943  0.27941  0.34046  1.0000
  C   C183      1.0  0.54493  0.29348  0.33073  1.0000
  C   C184      1.0  0.51618  0.27844  0.33161  1.0000
  C   C185      1.0  0.50209  0.24969  0.34064  1.0000
  C   C186      1.0  0.51727  0.23612  0.34997  1.0000
  H   H91       1.0  0.50548  0.28853  0.32575  1.0000
  H   H92       1.0  0.50729  0.21538  0.35694  1.0000
  H   H93       1.0  0.58033  0.29030  0.33988  1.0000
  C   C187      1.0  0.75624  0.29199  0.35094  1.0000
  C   C188      1.0  0.72768  0.27677  0.34044  1.0000
  C   C189      1.0  0.71362  0.24820  0.33072  1.0000
  C   C190      1.0  0.72867  0.23450  0.33161  1.0000
  C   C191      1.0  0.75742  0.24917  0.34059  1.0000
  C   C192      1.0  0.77098  0.27792  0.34988  1.0000
  H   H94       1.0  0.71859  0.21372  0.32579  1.0000
  H   H95       1.0  0.79173  0.28870  0.35678  1.0000
  H   H96       1.0  0.71677  0.28677  0.33988  1.0000
  C   C193      1.0  0.23963  0.46858  0.34193  1.0000
  C   C194      1.0  0.21071  0.41024  0.34567  1.0000
  C   C195      1.0  0.22331  0.42540  0.42510  1.0000
  C   C196      1.0  0.23781  0.45430  0.42195  1.0000
  H   H97       1.0  0.24683  0.46500  0.47947  1.0000
  C   C197      1.0  0.19600  0.38108  0.34457  1.0000
  C   C198      1.0  0.16658  0.32245  0.34265  1.0000
  C   C199      1.0  0.15884  0.33735  0.40031  1.0000
  C   C200      1.0  0.17328  0.36605  0.40143  1.0000
  H   H98       1.0  0.14278  0.32737  0.44359  1.0000
  H   H99       1.0  0.16688  0.37594  0.44391  1.0000
  N   N13       1.0  0.22175  0.41148  0.50607  1.0000
  O   O25       1.0  0.21009  0.41717  0.56725  1.0000
  O   O26       1.0  0.24495  0.41707  0.53344  1.0000
  C   C201      1.0  0.53855  0.76781  0.34191  1.0000
  C   C202      1.0  0.59689  0.79724  0.34565  1.0000
  C   C203      1.0  0.58173  0.79468  0.42506  1.0000
  C   C204      1.0  0.55283  0.78029  0.42192  1.0000
  H   H100      1.0  0.54213  0.77861  0.47944  1.0000
  C   C205      1.0  0.62606  0.81170  0.34455  1.0000
  C   C206      1.0  0.68468  0.84091  0.34265  1.0000
  C   C207      1.0  0.66979  0.81828  0.40030  1.0000
  C   C208      1.0  0.64108  0.80401  0.40144  1.0000
  H   H101      1.0  0.67977  0.81221  0.44361  1.0000
  H   H102      1.0  0.63119  0.78772  0.44392  1.0000
  N   N14       1.0  0.59565  0.80706  0.50602  1.0000
  O   O27       1.0  0.58996  0.78972  0.56724  1.0000
  O   O28       1.0  0.59006  0.82467  0.53335  1.0000
  C   C209      1.0  0.23929  0.76751  0.34193  1.0000
  C   C210      1.0  0.20987  0.79643  0.34567  1.0000
  C   C211      1.0  0.21245  0.78385  0.42510  1.0000
  C   C212      1.0  0.22685  0.76935  0.42197  1.0000
  H   H103      1.0  0.22854  0.76034  0.47949  1.0000
  C   C213      1.0  0.19542  0.81115  0.34457  1.0000
  C   C214      1.0  0.16621  0.84056  0.34265  1.0000
  C   C215      1.0  0.18885  0.84831  0.40027  1.0000
  C   C216      1.0  0.20312  0.83387  0.40142  1.0000
  H   H104      1.0  0.19492  0.86436  0.44357  1.0000
  H   H105      1.0  0.21941  0.84027  0.44387  1.0000
  N   N15       1.0  0.20009  0.78541  0.50609  1.0000
  O   O29       1.0  0.21746  0.79709  0.56724  1.0000
  O   O30       1.0  0.18249  0.76222  0.53350  1.0000
  C   C217      1.0  0.77203  0.53402  0.34195  1.0000
  C   C218      1.0  0.80095  0.59236  0.34570  1.0000
  C   C219      1.0  0.78836  0.57720  0.42512  1.0000
  C   C220      1.0  0.77386  0.54830  0.42198  1.0000
  H   H106      1.0  0.76486  0.53760  0.47951  1.0000
  C   C221      1.0  0.81565  0.62153  0.34459  1.0000
  C   C222      1.0  0.84506  0.68015  0.34267  1.0000
  C   C223      1.0  0.85280  0.66526  0.40032  1.0000
  C   C224      1.0  0.83837  0.63656  0.40145  1.0000
  H   H107      1.0  0.86887  0.67524  0.44357  1.0000
  H   H108      1.0  0.84478  0.62667  0.44389  1.0000
  N   N16       1.0  0.78992  0.59112  0.50611  1.0000
  O   O31       1.0  0.80160  0.58543  0.56726  1.0000
  O   O32       1.0  0.76673  0.58552  0.53352  1.0000
  C   C225      1.0  0.47310  0.23478  0.34194  1.0000
  C   C226      1.0  0.41476  0.20536  0.34568  1.0000
  C   C227      1.0  0.42992  0.20792  0.42509  1.0000
  C   C228      1.0  0.45882  0.22231  0.42195  1.0000
  H   H109      1.0  0.46952  0.22399  0.47947  1.0000
  C   C229      1.0  0.38559  0.19091  0.34457  1.0000
  C   C230      1.0  0.32697  0.16170  0.34265  1.0000
  C   C231      1.0  0.34186  0.18433  0.40032  1.0000
  C   C232      1.0  0.37057  0.19860  0.40144  1.0000
  H   H110      1.0  0.33188  0.19041  0.44359  1.0000
  H   H111      1.0  0.38046  0.21489  0.44392  1.0000
  N   N17       1.0  0.41600  0.19555  0.50606  1.0000
  O   O33       1.0  0.42169  0.21290  0.56726  1.0000
  O   O34       1.0  0.42159  0.17794  0.53341  1.0000
  C   C233      1.0  0.77235  0.23511  0.34188  1.0000
  C   C234      1.0  0.80177  0.20619  0.34563  1.0000
  C   C235      1.0  0.79920  0.21879  0.42505  1.0000
  C   C236      1.0  0.78481  0.23330  0.42190  1.0000
  H   H112      1.0  0.78311  0.24230  0.47943  1.0000
  C   C237      1.0  0.81622  0.19148  0.34453  1.0000
  C   C238      1.0  0.84543  0.16206  0.34263  1.0000
  C   C239      1.0  0.82279  0.15432  0.40026  1.0000
  C   C240      1.0  0.80852  0.16876  0.40140  1.0000
  H   H113      1.0  0.81671  0.13827  0.44356  1.0000
  H   H114      1.0  0.79223  0.16236  0.44386  1.0000
  N   N18       1.0  0.81156  0.21723  0.50603  1.0000
  O   O35       1.0  0.79420  0.20556  0.56720  1.0000
  O   O36       1.0  0.82917  0.24042  0.53341  1.0000
  C   C241      1.0  0.22863  0.16557  0.42116  1.0000
  C   C242      1.0  0.21452  0.18013  0.41953  1.0000
  C   C243      1.0  0.20391  0.22801  0.39648  1.0000
  C   C244      1.0  0.18961  0.24244  0.39737  1.0000
  H   H115      1.0  0.22060  0.23457  0.43717  1.0000
  H   H116      1.0  0.19612  0.25865  0.44020  1.0000
  H   H117      1.0  0.23097  0.15811  0.48123  1.0000
  H   H118      1.0  0.20672  0.18257  0.47873  1.0000
  C   C245      1.0  0.84157  0.05985  0.42116  1.0000
  C   C246      1.0  0.82700  0.03118  0.41951  1.0000
  C   C247      1.0  0.77912  0.97269  0.39647  1.0000
  C   C248      1.0  0.76468  0.94397  0.39734  1.0000
  H   H119      1.0  0.77256  0.98283  0.43716  1.0000
  H   H120      1.0  0.74848  0.93426  0.44020  1.0000
  H   H121      1.0  0.84902  0.06965  0.48122  1.0000
  H   H122      1.0  0.82456  0.02095  0.47871  1.0000
  C   C249      1.0  0.94727  0.77851  0.42114  1.0000
  C   C250      1.0  0.97595  0.79262  0.41951  1.0000
  C   C251      1.0  0.03444  0.80323  0.39650  1.0000
  C   C252      1.0  0.06316  0.81751  0.39734  1.0000
  H   H123      1.0  0.02430  0.78653  0.43717  1.0000
  H   H124      1.0  0.07286  0.81101  0.44021  1.0000
  H   H125      1.0  0.93747  0.77616  0.48121  1.0000
  H   H126      1.0  0.98617  0.80041  0.47871  1.0000
  C   C253      1.0  0.78304  0.83706  0.42116  1.0000
  C   C254      1.0  0.79714  0.82249  0.41951  1.0000
  C   C255      1.0  0.80774  0.77461  0.39650  1.0000
  C   C256      1.0  0.82202  0.76016  0.39734  1.0000
  H   H127      1.0  0.79104  0.76805  0.43717  1.0000
  H   H128      1.0  0.81552  0.74396  0.44020  1.0000
  H   H129      1.0  0.78070  0.84452  0.48122  1.0000
  H   H130      1.0  0.80494  0.82006  0.47871  1.0000
  C   C257      1.0  0.17007  0.94276  0.42115  1.0000
  C   C258      1.0  0.18464  0.97144  0.41951  1.0000
  C   C259      1.0  0.23252  0.02993  0.39647  1.0000
  C   C260      1.0  0.24695  0.05865  0.39736  1.0000
  H   H131      1.0  0.23908  0.01979  0.43717  1.0000
  H   H132      1.0  0.26317  0.06835  0.44019  1.0000
  H   H133      1.0  0.16261  0.93297  0.48122  1.0000
  H   H134      1.0  0.18707  0.98167  0.47871  1.0000
  C   C261      1.0  0.06437  0.22411  0.42116  1.0000
  C   C262      1.0  0.03569  0.21000  0.41951  1.0000
  C   C263      1.0  0.97720  0.19940  0.39647  1.0000
  C   C264      1.0  0.94848  0.18511  0.39733  1.0000
  H   H135      1.0  0.98734  0.21609  0.43716  1.0000
  H   H136      1.0  0.93878  0.19161  0.44020  1.0000
  H   H137      1.0  0.07416  0.22645  0.48122  1.0000
  H   H138      1.0  0.02546  0.20221  0.47871  1.0000
  C   C265      1.0  0.22780  0.56032  0.40167  1.0000
  C   C266      1.0  0.22321  0.58251  0.40591  1.0000
  C   C267      1.0  0.24666  0.64347  0.41945  1.0000
  C   C268      1.0  0.25242  0.67059  0.42536  1.0000
  H   H139      1.0  0.25603  0.63706  0.46418  1.0000
  H   H140      1.0  0.26562  0.68279  0.47428  1.0000
  H   H141      1.0  0.22517  0.54917  0.45884  1.0000
  H   H142      1.0  0.21650  0.58613  0.46550  1.0000
  C   C269      1.0  0.44679  0.66428  0.40176  1.0000
  C   C270      1.0  0.42462  0.63749  0.40601  1.0000
  C   C271      1.0  0.36364  0.60001  0.41962  1.0000
  C   C272      1.0  0.33652  0.57866  0.42554  1.0000
  H   H143      1.0  0.37005  0.61580  0.46430  1.0000
  H   H144      1.0  0.32431  0.57967  0.47439  1.0000
  H   H145      1.0  0.45797  0.67280  0.45888  1.0000
  H   H146      1.0  0.42098  0.62717  0.46563  1.0000
  C   C273      1.0  0.34284  0.77926  0.40204  1.0000
  C   C274      1.0  0.36964  0.78390  0.40616  1.0000
  C   C275      1.0  0.40709  0.76034  0.41959  1.0000
  C   C276      1.0  0.42844  0.75458  0.42546  1.0000
  H   H147      1.0  0.39137  0.75108  0.46456  1.0000
  H   H148      1.0  0.42751  0.74147  0.47458  1.0000
  H   H149      1.0  0.33436  0.78201  0.45910  1.0000
  H   H150      1.0  0.38000  0.79062  0.46571  1.0000
  C   C277      1.0  0.78383  0.44227  0.40199  1.0000
  C   C278      1.0  0.78846  0.42011  0.40616  1.0000
  C   C279      1.0  0.76489  0.35910  0.41955  1.0000
  C   C280      1.0  0.75914  0.33199  0.42549  1.0000
  H   H151      1.0  0.75559  0.36555  0.46441  1.0000
  H   H152      1.0  0.74596  0.31980  0.47449  1.0000
  H   H153      1.0  0.78653  0.45349  0.45904  1.0000
  H   H154      1.0  0.79517  0.41647  0.46571  1.0000
  C   C281      1.0  0.56485  0.33831  0.40165  1.0000
  C   C282      1.0  0.58705  0.36508  0.40589  1.0000
  C   C283      1.0  0.64801  0.40259  0.41942  1.0000
  C   C284      1.0  0.67512  0.42395  0.42533  1.0000
  H   H155      1.0  0.64160  0.38681  0.46412  1.0000
  H   H156      1.0  0.68733  0.42295  0.47424  1.0000
  H   H157      1.0  0.55370  0.32978  0.45881  1.0000
  H   H158      1.0  0.59067  0.37541  0.46550  1.0000
  C   C285      1.0  0.66882  0.22335  0.40189  1.0000
  C   C286      1.0  0.64202  0.21870  0.40608  1.0000
  C   C287      1.0  0.60453  0.24218  0.41969  1.0000
  C   C288      1.0  0.58317  0.24794  0.42559  1.0000
  H   H159      1.0  0.62031  0.25155  0.46439  1.0000
  H   H160      1.0  0.58418  0.26115  0.47447  1.0000
  H   H161      1.0  0.67734  0.22064  0.45894  1.0000
  H   H162      1.0  0.63169  0.21200  0.46568  1.0000
