data_image0
_chemical_formula_structural       C3HC3HC2OH2C4HC3HC2OH2CHNCHNCHNHCNCHCNC2OH3NCHNCHNHCNCHCNC2OH6C4HC3HC3HNCHNCHC5NH2C3NHC2NCH3C2NC2OH3C4HC3HC3HNCHNCHC5NH2C3NHC2NCH3C2NC2OH3C3H2C2H4NCHNCHC3NH2CNH2C3NH2COHC2NC2OH3C2NC2OH3C3H2C2H4NCHNCHC3NH2CNH2C3NH2COHC2NC2OH3C2NC2OH3C3HC3H3C3HC3H3C3HC3H3NCHNCHNCHNCHNCHNCHC3NC3NH4C3NC3NH4C3NC3NH4C2NC2OH3C2NC2OH3C2NC2OH3C2NC2OH3C2NC2OH3C2NC2OH3C3HC3H3C3HC3H3C3HC3H3NCHNCHNCHNCHNCHNCHC3NC3NH4C3NC3NH4C3NC3NH4C2NC2OH3C2NC2OH3C2NC2OH3C2NC2OH3C2NC2OH3C2NC2OH3
_chemical_formula_sum              "C264 H192 O24 N72"
_cell_length_a       46.4335
_cell_length_b       46.4335
_cell_length_c       14.8245
_cell_angle_alpha    90
_cell_angle_beta     90
_cell_angle_gamma    120

_space_group_name_H-M_alt    "P 1"
_space_group_IT_number       1

loop_
  _space_group_symop_operation_xyz
  'x, y, z'

loop_
  _atom_site_type_symbol
  _atom_site_label
  _atom_site_symmetry_multiplicity
  _atom_site_fract_x
  _atom_site_fract_y
  _atom_site_fract_z
  _atom_site_occupancy
  C   C1        1.0  0.02699  0.26504  0.33509  1.0000
  C   C2        1.0  0.08200  0.31884  0.32497  1.0000
  C   C3        1.0  0.04671  0.30062  0.33117  1.0000
  H   H1        1.0  0.03540  0.31455  0.32900  1.0000
  C   C4        1.0  0.04639  0.24886  0.33846  1.0000
  C   C5        1.0  0.08172  0.26554  0.33629  1.0000
  C   C6        1.0  0.09970  0.30097  0.32742  1.0000
  H   H2        1.0  0.03488  0.22368  0.34436  1.0000
  C   C7        1.0  0.09885  0.24720  0.34103  1.0000
  C   C8        1.0  0.09604  0.23808  0.51583  1.0000
  O   O1        1.0  0.06547  0.23837  0.52303  1.0000
  H   H3        1.0  0.09091  0.21403  0.54230  1.0000
  H   H4        1.0  0.07062  0.26166  0.52156  1.0000
  C   C9        1.0  0.09935  0.35436  0.32593  1.0000
  C   C10       1.0  0.02700  0.76504  0.33509  1.0000
  C   C11       1.0  0.08200  0.81885  0.32497  1.0000
  C   C12       1.0  0.04671  0.80062  0.33117  1.0000
  H   H5        1.0  0.03539  0.81455  0.32900  1.0000
  C   C13       1.0  0.04639  0.74886  0.33846  1.0000
  C   C14       1.0  0.08172  0.76554  0.33629  1.0000
  C   C15       1.0  0.09970  0.80097  0.32742  1.0000
  H   H6        1.0  0.03488  0.72368  0.34436  1.0000
  C   C16       1.0  0.09885  0.74720  0.34103  1.0000
  C   C17       1.0  0.09604  0.73808  0.51583  1.0000
  O   O2        1.0  0.06547  0.73837  0.52303  1.0000
  H   H7        1.0  0.09092  0.71403  0.54230  1.0000
  H   H8        1.0  0.07062  0.76167  0.52156  1.0000
  C   C18       1.0  0.09935  0.85436  0.32593  1.0000
  H   H9        1.0  0.14654  0.34085  0.30867  1.0000
  N   N1        1.0  0.11836  0.25095  0.26780  1.0000
  C   C19       1.0  0.14672  0.24908  0.26802  1.0000
  H   H10       1.0  0.16082  0.25577  0.21064  1.0000
  N   N2        1.0  0.14850  0.40071  0.26578  1.0000
  C   C20       1.0  0.11880  0.37256  0.25088  1.0000
  H   H11       1.0  0.11482  0.36148  0.18903  1.0000
  N   N3        1.0  0.13374  0.31779  0.32472  1.0000
  H   H12       1.0  0.14690  0.30735  0.33447  1.0000
  C   C21       1.0  0.16033  0.24712  0.35149  1.0000
  N   N4        1.0  0.14074  0.24304  0.42424  1.0000
  C   C22       1.0  0.11053  0.24144  0.42434  1.0000
  H   H13       1.0  0.11462  0.25721  0.56026  1.0000
  C   C23       1.0  0.15965  0.41643  0.34670  1.0000
  N   N5        1.0  0.11067  0.36975  0.40711  1.0000
  C   C24       1.0  0.13811  0.40038  0.42138  1.0000
  C   C25       1.0  0.14511  0.41115  0.51717  1.0000
  O   O3        1.0  0.17398  0.44284  0.53427  1.0000
  H   H14       1.0  0.14620  0.39192  0.55726  1.0000
  H   H15       1.0  0.12398  0.41309  0.54180  1.0000
  H   H16       1.0  0.14654  0.84085  0.30867  1.0000
  N   N6        1.0  0.11836  0.75095  0.26780  1.0000
  C   C26       1.0  0.14672  0.74908  0.26802  1.0000
  H   H17       1.0  0.16082  0.75577  0.21064  1.0000
  N   N7        1.0  0.14850  0.90071  0.26578  1.0000
  C   C27       1.0  0.11880  0.87257  0.25088  1.0000
  H   H18       1.0  0.11482  0.86148  0.18903  1.0000
  N   N8        1.0  0.13374  0.81779  0.32472  1.0000
  H   H19       1.0  0.14690  0.80735  0.33447  1.0000
  C   C28       1.0  0.16034  0.74712  0.35149  1.0000
  N   N9        1.0  0.14074  0.74304  0.42424  1.0000
  C   C29       1.0  0.11053  0.74144  0.42434  1.0000
  H   H20       1.0  0.11462  0.75721  0.56026  1.0000
  C   C30       1.0  0.15965  0.91643  0.34670  1.0000
  N   N10       1.0  0.11067  0.86975  0.40711  1.0000
  C   C31       1.0  0.13811  0.90038  0.42138  1.0000
  C   C32       1.0  0.14511  0.91115  0.51717  1.0000
  O   O4        1.0  0.17398  0.94284  0.53427  1.0000
  H   H21       1.0  0.14620  0.89192  0.55726  1.0000
  H   H22       1.0  0.12398  0.91309  0.54180  1.0000
  H   H23       1.0  0.17733  0.30051  0.45874  1.0000
  H   H24       1.0  0.17733  0.80052  0.45874  1.0000
  H   H25       1.0  0.17560  0.37556  0.42810  1.0000
  H   H26       1.0  0.17560  0.87556  0.42810  1.0000
  C   C33       1.0  0.26811  0.24710  0.33417  1.0000
  C   C34       1.0  0.24952  0.26462  0.33385  1.0000
  C   C35       1.0  0.19557  0.26364  0.36163  1.0000
  C   C36       1.0  0.21392  0.24815  0.33426  1.0000
  H   H27       1.0  0.20030  0.22349  0.31909  1.0000
  C   C37       1.0  0.26834  0.02412  0.33291  1.0000
  C   C38       1.0  0.25293  0.04425  0.33370  1.0000
  C   C39       1.0  0.27044  0.07917  0.34720  1.0000
  H   H28       1.0  0.22802  0.03376  0.32320  1.0000
  C   C40       1.0  0.24945  0.48791  0.33268  1.0000
  C   C41       1.0  0.24740  0.43285  0.34540  1.0000
  C   C42       1.0  0.26487  0.46778  0.33209  1.0000
  H   H29       1.0  0.20991  0.37520  0.41912  1.0000
  N   N11       1.0  0.24943  0.35939  0.27850  1.0000
  C   C43       1.0  0.25042  0.38877  0.26482  1.0000
  H   H30       1.0  0.23741  0.39051  0.21145  1.0000
  N   N12       1.0  0.26781  0.15231  0.28087  1.0000
  C   C44       1.0  0.26692  0.12299  0.26678  1.0000
  H   H31       1.0  0.28002  0.12138  0.21350  1.0000
  C   C45       1.0  0.26935  0.19481  0.36732  1.0000
  C   C46       1.0  0.25241  0.21168  0.34028  1.0000
  C   C47       1.0  0.26521  0.30006  0.33911  1.0000
  C   C48       1.0  0.24825  0.31697  0.36557  1.0000
  C   C49       1.0  0.21383  0.29774  0.38813  1.0000
  N   N13       1.0  0.19969  0.31261  0.43598  1.0000
  H   H32       1.0  0.21397  0.33253  0.47005  1.0000
  H   H33       1.0  0.22754  0.19717  0.32898  1.0000
  C   C50       1.0  0.21378  0.46905  0.33561  1.0000
  C   C51       1.0  0.19508  0.43435  0.35323  1.0000
  C   C52       1.0  0.21279  0.41692  0.36611  1.0000
  N   N14       1.0  0.19735  0.38556  0.40134  1.0000
  H   H34       1.0  0.20023  0.48067  0.32921  1.0000
  C   C53       1.0  0.26254  0.35180  0.35070  1.0000
  C   C54       1.0  0.26307  0.41343  0.33289  1.0000
  N   N15       1.0  0.27494  0.40523  0.40696  1.0000
  C   C55       1.0  0.27671  0.37684  0.41875  1.0000
  H   H35       1.0  0.27617  0.37803  0.56150  1.0000
  H   H36       1.0  0.26767  0.32651  0.54272  1.0000
  H   H37       1.0  0.19354  0.43991  0.53617  1.0000
  C   C56       1.0  0.25476  0.15989  0.35331  1.0000
  C   C57       1.0  0.25471  0.09859  0.33547  1.0000
  N   N16       1.0  0.24307  0.10669  0.41013  1.0000
  C   C58       1.0  0.24114  0.13499  0.42184  1.0000
  C   C59       1.0  0.22847  0.13814  0.51116  1.0000
  O   O5        1.0  0.22778  0.16816  0.52812  1.0000
  H   H38       1.0  0.24259  0.13444  0.56457  1.0000
  H   H39       1.0  0.20277  0.11790  0.51636  1.0000
  H   H40       1.0  0.25035  0.18566  0.54483  1.0000
  C   C60       1.0  0.26811  0.74710  0.33417  1.0000
  C   C61       1.0  0.24952  0.76462  0.33385  1.0000
  C   C62       1.0  0.19557  0.76364  0.36163  1.0000
  C   C63       1.0  0.21392  0.74815  0.33426  1.0000
  H   H41       1.0  0.20030  0.72349  0.31909  1.0000
  C   C64       1.0  0.26834  0.52412  0.33291  1.0000
  C   C65       1.0  0.25293  0.54425  0.33370  1.0000
  C   C66       1.0  0.27044  0.57917  0.34720  1.0000
  H   H42       1.0  0.22802  0.53376  0.32320  1.0000
  C   C67       1.0  0.24945  0.98791  0.33268  1.0000
  C   C68       1.0  0.24740  0.93285  0.34540  1.0000
  C   C69       1.0  0.26487  0.96778  0.33209  1.0000
  H   H43       1.0  0.20991  0.87520  0.41912  1.0000
  N   N17       1.0  0.24943  0.85939  0.27850  1.0000
  C   C70       1.0  0.25042  0.88877  0.26482  1.0000
  H   H44       1.0  0.23741  0.89051  0.21145  1.0000
  N   N18       1.0  0.26781  0.65231  0.28086  1.0000
  C   C71       1.0  0.26692  0.62300  0.26678  1.0000
  H   H45       1.0  0.28002  0.62138  0.21350  1.0000
  C   C72       1.0  0.26935  0.69481  0.36732  1.0000
  C   C73       1.0  0.25241  0.71168  0.34028  1.0000
  C   C74       1.0  0.26521  0.80006  0.33911  1.0000
  C   C75       1.0  0.24825  0.81697  0.36557  1.0000
  C   C76       1.0  0.21384  0.79774  0.38813  1.0000
  N   N19       1.0  0.19969  0.81261  0.43598  1.0000
  H   H46       1.0  0.21397  0.83253  0.47005  1.0000
  H   H47       1.0  0.22754  0.69717  0.32898  1.0000
  C   C77       1.0  0.21378  0.96905  0.33561  1.0000
  C   C78       1.0  0.19508  0.93435  0.35323  1.0000
  C   C79       1.0  0.21279  0.91692  0.36611  1.0000
  N   N20       1.0  0.19735  0.88556  0.40134  1.0000
  H   H48       1.0  0.20023  0.98067  0.32921  1.0000
  C   C80       1.0  0.26254  0.85180  0.35070  1.0000
  C   C81       1.0  0.26307  0.91343  0.33289  1.0000
  N   N21       1.0  0.27494  0.90523  0.40696  1.0000
  C   C82       1.0  0.27671  0.87684  0.41875  1.0000
  H   H49       1.0  0.27617  0.87803  0.56150  1.0000
  H   H50       1.0  0.26767  0.82651  0.54272  1.0000
  H   H51       1.0  0.19354  0.93991  0.53617  1.0000
  C   C83       1.0  0.25476  0.65989  0.35331  1.0000
  C   C84       1.0  0.25471  0.59859  0.33547  1.0000
  N   N22       1.0  0.24307  0.60669  0.41013  1.0000
  C   C85       1.0  0.24115  0.63499  0.42184  1.0000
  C   C86       1.0  0.22847  0.63814  0.51116  1.0000
  O   O6        1.0  0.22778  0.66816  0.52812  1.0000
  H   H52       1.0  0.24259  0.63444  0.56457  1.0000
  H   H53       1.0  0.20277  0.61790  0.51636  1.0000
  H   H54       1.0  0.25035  0.68566  0.54483  1.0000
  C   C87       1.0  0.49067  0.24696  0.33453  1.0000
  C   C88       1.0  0.47098  0.21140  0.32964  1.0000
  C   C89       1.0  0.43572  0.19319  0.32230  1.0000
  H   H55       1.0  0.48230  0.19748  0.32760  1.0000
  H   H56       1.0  0.37111  0.17115  0.30553  1.0000
  C   C90       1.0  0.30372  0.26354  0.33453  1.0000
  C   C91       1.0  0.32207  0.24811  0.36238  1.0000
  H   H57       1.0  0.31733  0.28819  0.31911  1.0000
  H   H58       1.0  0.34050  0.21104  0.45838  1.0000
  H   H59       1.0  0.28973  0.47828  0.32087  1.0000
  H   H60       1.0  0.30842  0.13698  0.41931  1.0000
  N   N23       1.0  0.39939  0.26157  0.26730  1.0000
  C   C92       1.0  0.37098  0.26333  0.26881  1.0000
  H   H61       1.0  0.35705  0.25743  0.21118  1.0000
  N   N24       1.0  0.36906  0.11117  0.26328  1.0000
  C   C93       1.0  0.39863  0.13937  0.24783  1.0000
  H   H62       1.0  0.40255  0.15027  0.18571  1.0000
  C   C94       1.0  0.41798  0.21103  0.32460  1.0000
  C   C95       1.0  0.43593  0.24642  0.33466  1.0000
  C   C96       1.0  0.47126  0.26312  0.33776  1.0000
  N   N25       1.0  0.38393  0.19423  0.32115  1.0000
  H   H63       1.0  0.37073  0.20465  0.33102  1.0000
  H   H64       1.0  0.48274  0.28827  0.34453  1.0000
  C   C97       1.0  0.30379  0.21406  0.38956  1.0000
  N   N26       1.0  0.31787  0.19909  0.43723  1.0000
  H   H65       1.0  0.30383  0.17922  0.47139  1.0000
  H   H66       1.0  0.29006  0.31456  0.32742  1.0000
  C   C98       1.0  0.30517  0.09512  0.36654  1.0000
  C   C99       1.0  0.32278  0.07766  0.35275  1.0000
  C   C100      1.0  0.30402  0.04297  0.33493  1.0000
  N   N27       1.0  0.32074  0.12658  0.40115  1.0000
  H   H67       1.0  0.34282  0.13674  0.42673  1.0000
  H   H68       1.0  0.31754  0.03138  0.32732  1.0000
  C   C101      1.0  0.28982  0.37389  0.50759  1.0000
  O   O7        1.0  0.29023  0.34376  0.52501  1.0000
  H   H69       1.0  0.31565  0.39395  0.51152  1.0000
  C   C102      1.0  0.41874  0.26468  0.34029  1.0000
  C   C103      1.0  0.35734  0.26476  0.35280  1.0000
  N   N28       1.0  0.37693  0.26834  0.42513  1.0000
  C   C104      1.0  0.40708  0.26981  0.42451  1.0000
  C   C105      1.0  0.42151  0.27257  0.51585  1.0000
  O   O8        1.0  0.45180  0.27171  0.52265  1.0000
  H   H70       1.0  0.40277  0.25341  0.55985  1.0000
  H   H71       1.0  0.42698  0.29662  0.54320  1.0000
  H   H72       1.0  0.44628  0.24831  0.52004  1.0000
  C   C106      1.0  0.35815  0.09563  0.34448  1.0000
  C   C107      1.0  0.41843  0.15768  0.32216  1.0000
  N   N29       1.0  0.40745  0.14238  0.40364  1.0000
  C   C108      1.0  0.38004  0.11180  0.41858  1.0000
  C   C109      1.0  0.37355  0.10105  0.51448  1.0000
  O   O9        1.0  0.34483  0.06932  0.53235  1.0000
  H   H73       1.0  0.37260  0.12028  0.55501  1.0000
  H   H74       1.0  0.39484  0.09920  0.53803  1.0000
  H   H75       1.0  0.32525  0.07219  0.53538  1.0000
  C   C110      1.0  0.49068  0.74696  0.33453  1.0000
  C   C111      1.0  0.47098  0.71140  0.32964  1.0000
  C   C112      1.0  0.43572  0.69319  0.32230  1.0000
  H   H76       1.0  0.48230  0.69748  0.32760  1.0000
  H   H77       1.0  0.37111  0.67115  0.30553  1.0000
  C   C113      1.0  0.30372  0.76354  0.33453  1.0000
  C   C114      1.0  0.32207  0.74811  0.36238  1.0000
  H   H78       1.0  0.31733  0.78819  0.31911  1.0000
  H   H79       1.0  0.34050  0.71104  0.45838  1.0000
  H   H80       1.0  0.28973  0.97828  0.32087  1.0000
  H   H81       1.0  0.30842  0.63698  0.41931  1.0000
  N   N30       1.0  0.39939  0.76157  0.26730  1.0000
  C   C115      1.0  0.37097  0.76333  0.26881  1.0000
  H   H82       1.0  0.35705  0.75743  0.21118  1.0000
  N   N31       1.0  0.36906  0.61117  0.26328  1.0000
  C   C116      1.0  0.39863  0.63938  0.24783  1.0000
  H   H83       1.0  0.40255  0.65027  0.18571  1.0000
  C   C117      1.0  0.41798  0.71103  0.32460  1.0000
  C   C118      1.0  0.43593  0.74642  0.33466  1.0000
  C   C119      1.0  0.47126  0.76312  0.33776  1.0000
  N   N32       1.0  0.38393  0.69423  0.32115  1.0000
  H   H84       1.0  0.37073  0.70465  0.33102  1.0000
  H   H85       1.0  0.48274  0.78827  0.34453  1.0000
  C   C120      1.0  0.30379  0.71406  0.38956  1.0000
  N   N33       1.0  0.31787  0.69909  0.43723  1.0000
  H   H86       1.0  0.30383  0.67922  0.47139  1.0000
  H   H87       1.0  0.29006  0.81456  0.32742  1.0000
  C   C121      1.0  0.30517  0.59512  0.36654  1.0000
  C   C122      1.0  0.32278  0.57766  0.35275  1.0000
  C   C123      1.0  0.30402  0.54297  0.33493  1.0000
  N   N34       1.0  0.32074  0.62658  0.40115  1.0000
  H   H88       1.0  0.34282  0.63674  0.42673  1.0000
  H   H89       1.0  0.31754  0.53138  0.32732  1.0000
  C   C124      1.0  0.28982  0.87389  0.50759  1.0000
  O   O10       1.0  0.29023  0.84376  0.52501  1.0000
  H   H90       1.0  0.31565  0.89395  0.51152  1.0000
  C   C125      1.0  0.41874  0.76468  0.34029  1.0000
  C   C126      1.0  0.35734  0.76476  0.35280  1.0000
  N   N35       1.0  0.37693  0.76834  0.42513  1.0000
  C   C127      1.0  0.40709  0.76981  0.42451  1.0000
  C   C128      1.0  0.42151  0.77257  0.51585  1.0000
  O   O11       1.0  0.45179  0.77171  0.52265  1.0000
  H   H91       1.0  0.40277  0.75341  0.55985  1.0000
  H   H92       1.0  0.42698  0.79662  0.54320  1.0000
  H   H93       1.0  0.44628  0.74831  0.52004  1.0000
  C   C129      1.0  0.35815  0.59563  0.34448  1.0000
  C   C130      1.0  0.41843  0.65768  0.32216  1.0000
  N   N36       1.0  0.40745  0.64238  0.40364  1.0000
  C   C131      1.0  0.38004  0.61180  0.41858  1.0000
  C   C132      1.0  0.37355  0.60105  0.51448  1.0000
  O   O12       1.0  0.34483  0.56932  0.53235  1.0000
  H   H94       1.0  0.37260  0.62028  0.55501  1.0000
  H   H95       1.0  0.39484  0.59920  0.53803  1.0000
  H   H96       1.0  0.32525  0.57219  0.53538  1.0000
  C   C133      1.0  0.99068  0.24696  0.33453  1.0000
  C   C134      1.0  0.97098  0.21140  0.32964  1.0000
  C   C135      1.0  0.93572  0.19319  0.32230  1.0000
  H   H97       1.0  0.98230  0.19748  0.32760  1.0000
  C   C136      1.0  0.52699  0.26504  0.33509  1.0000
  C   C137      1.0  0.58200  0.31884  0.32497  1.0000
  C   C138      1.0  0.54671  0.30062  0.33117  1.0000
  H   H98       1.0  0.53540  0.31455  0.32900  1.0000
  H   H99       1.0  0.64654  0.34085  0.30867  1.0000
  H   H100      1.0  0.87111  0.17115  0.30553  1.0000
  C   C139      1.0  0.76811  0.24710  0.33417  1.0000
  C   C140      1.0  0.80372  0.26354  0.33453  1.0000
  C   C141      1.0  0.82207  0.24811  0.36238  1.0000
  H   H101      1.0  0.81733  0.28819  0.31911  1.0000
  C   C142      1.0  0.74953  0.26462  0.33385  1.0000
  C   C143      1.0  0.69557  0.26364  0.36163  1.0000
  C   C144      1.0  0.71392  0.24815  0.33426  1.0000
  H   H102      1.0  0.70030  0.22349  0.31909  1.0000
  H   H103      1.0  0.67733  0.30051  0.45874  1.0000
  H   H104      1.0  0.84050  0.21104  0.45838  1.0000
  C   C145      1.0  0.76834  0.02412  0.33291  1.0000
  C   C146      1.0  0.75293  0.04425  0.33370  1.0000
  C   C147      1.0  0.77044  0.07917  0.34720  1.0000
  H   H105      1.0  0.72802  0.03376  0.32320  1.0000
  C   C148      1.0  0.74945  0.48791  0.33268  1.0000
  C   C149      1.0  0.74740  0.43285  0.34540  1.0000
  C   C150      1.0  0.76487  0.46778  0.33209  1.0000
  H   H106      1.0  0.78973  0.47828  0.32087  1.0000
  H   H107      1.0  0.70991  0.37520  0.41912  1.0000
  H   H108      1.0  0.80842  0.13698  0.41931  1.0000
  N   N37       1.0  0.61836  0.25095  0.26780  1.0000
  C   C151      1.0  0.64672  0.24908  0.26802  1.0000
  H   H109      1.0  0.66082  0.25577  0.21064  1.0000
  N   N38       1.0  0.74943  0.35939  0.27850  1.0000
  C   C152      1.0  0.75042  0.38877  0.26482  1.0000
  H   H110      1.0  0.73741  0.39051  0.21145  1.0000
  N   N39       1.0  0.64850  0.40071  0.26578  1.0000
  C   C153      1.0  0.61880  0.37256  0.25088  1.0000
  H   H111      1.0  0.61482  0.36148  0.18903  1.0000
  N   N40       1.0  0.89939  0.26157  0.26730  1.0000
  C   C154      1.0  0.87097  0.26333  0.26881  1.0000
  H   H112      1.0  0.85705  0.25743  0.21118  1.0000
  N   N41       1.0  0.76781  0.15231  0.28087  1.0000
  C   C155      1.0  0.76692  0.12299  0.26678  1.0000
  H   H113      1.0  0.78002  0.12138  0.21350  1.0000
  N   N42       1.0  0.86906  0.11117  0.26328  1.0000
  C   C156      1.0  0.89863  0.13937  0.24783  1.0000
  H   H114      1.0  0.90256  0.15027  0.18571  1.0000
  C   C157      1.0  0.91798  0.21103  0.32460  1.0000
  C   C158      1.0  0.93593  0.24642  0.33466  1.0000
  C   C159      1.0  0.97126  0.26312  0.33776  1.0000
  N   N43       1.0  0.88393  0.19423  0.32115  1.0000
  C   C160      1.0  0.54639  0.24886  0.33846  1.0000
  C   C161      1.0  0.58172  0.26554  0.33629  1.0000
  C   C162      1.0  0.59970  0.30097  0.32742  1.0000
  N   N44       1.0  0.63374  0.31779  0.32472  1.0000
  H   H115      1.0  0.64690  0.30735  0.33447  1.0000
  H   H116      1.0  0.87074  0.20465  0.33102  1.0000
  H   H117      1.0  0.98274  0.28827  0.34453  1.0000
  H   H118      1.0  0.53488  0.22368  0.34436  1.0000
  C   C163      1.0  0.80379  0.21406  0.38956  1.0000
  C   C164      1.0  0.76935  0.19481  0.36732  1.0000
  C   C165      1.0  0.75241  0.21168  0.34028  1.0000
  N   N45       1.0  0.81787  0.19909  0.43723  1.0000
  C   C166      1.0  0.76521  0.30006  0.33911  1.0000
  C   C167      1.0  0.74825  0.31697  0.36557  1.0000
  C   C168      1.0  0.71383  0.29774  0.38813  1.0000
  N   N46       1.0  0.69969  0.31261  0.43598  1.0000
  H   H119      1.0  0.71397  0.33253  0.47005  1.0000
  H   H120      1.0  0.80383  0.17922  0.47139  1.0000
  H   H121      1.0  0.72754  0.19717  0.32898  1.0000
  H   H122      1.0  0.79006  0.31456  0.32742  1.0000
  C   C169      1.0  0.80517  0.09512  0.36654  1.0000
  C   C170      1.0  0.82278  0.07766  0.35275  1.0000
  C   C171      1.0  0.80402  0.04297  0.33493  1.0000
  N   N47       1.0  0.82074  0.12658  0.40115  1.0000
  C   C172      1.0  0.71378  0.46905  0.33561  1.0000
  C   C173      1.0  0.69508  0.43435  0.35323  1.0000
  C   C174      1.0  0.71279  0.41692  0.36611  1.0000
  N   N48       1.0  0.69735  0.38556  0.40134  1.0000
  H   H123      1.0  0.67560  0.37556  0.42810  1.0000
  H   H124      1.0  0.84282  0.13674  0.42673  1.0000
  H   H125      1.0  0.81754  0.03138  0.32732  1.0000
  H   H126      1.0  0.70023  0.48067  0.32921  1.0000
  C   C175      1.0  0.59885  0.24720  0.34103  1.0000
  C   C176      1.0  0.66033  0.24712  0.35149  1.0000
  N   N49       1.0  0.64074  0.24304  0.42424  1.0000
  C   C177      1.0  0.61053  0.24144  0.42434  1.0000
  C   C178      1.0  0.59605  0.23808  0.51583  1.0000
  O   O13       1.0  0.56547  0.23837  0.52303  1.0000
  H   H127      1.0  0.61462  0.25721  0.56026  1.0000
  H   H128      1.0  0.59091  0.21403  0.54230  1.0000
  H   H129      1.0  0.57062  0.26166  0.52156  1.0000
  C   C179      1.0  0.76254  0.35180  0.35070  1.0000
  C   C180      1.0  0.76307  0.41343  0.33289  1.0000
  N   N50       1.0  0.77494  0.40523  0.40696  1.0000
  C   C181      1.0  0.77671  0.37684  0.41875  1.0000
  C   C182      1.0  0.78982  0.37389  0.50759  1.0000
  O   O14       1.0  0.79023  0.34376  0.52501  1.0000
  H   H130      1.0  0.77617  0.37803  0.56150  1.0000
  H   H131      1.0  0.81565  0.39395  0.51152  1.0000
  H   H132      1.0  0.76768  0.32651  0.54272  1.0000
  C   C183      1.0  0.65965  0.41643  0.34670  1.0000
  C   C184      1.0  0.59935  0.35436  0.32593  1.0000
  N   N51       1.0  0.61067  0.36975  0.40711  1.0000
  C   C185      1.0  0.63811  0.40038  0.42138  1.0000
  C   C186      1.0  0.64511  0.41115  0.51717  1.0000
  O   O15       1.0  0.67398  0.44284  0.53427  1.0000
  H   H133      1.0  0.64620  0.39192  0.55726  1.0000
  H   H134      1.0  0.62398  0.41309  0.54180  1.0000
  H   H135      1.0  0.69354  0.43991  0.53617  1.0000
  C   C187      1.0  0.91874  0.26468  0.34029  1.0000
  C   C188      1.0  0.85734  0.26476  0.35280  1.0000
  N   N52       1.0  0.87693  0.26834  0.42513  1.0000
  C   C189      1.0  0.90709  0.26981  0.42451  1.0000
  C   C190      1.0  0.92151  0.27257  0.51585  1.0000
  O   O16       1.0  0.95179  0.27171  0.52265  1.0000
  H   H136      1.0  0.90277  0.25341  0.55985  1.0000
  H   H137      1.0  0.92698  0.29662  0.54320  1.0000
  H   H138      1.0  0.94628  0.24831  0.52004  1.0000
  C   C191      1.0  0.75476  0.15989  0.35331  1.0000
  C   C192      1.0  0.75471  0.09859  0.33547  1.0000
  N   N53       1.0  0.74307  0.10669  0.41013  1.0000
  C   C193      1.0  0.74115  0.13499  0.42184  1.0000
  C   C194      1.0  0.72847  0.13814  0.51116  1.0000
  O   O17       1.0  0.72778  0.16816  0.52812  1.0000
  H   H139      1.0  0.74259  0.13444  0.56457  1.0000
  H   H140      1.0  0.70276  0.11790  0.51636  1.0000
  H   H141      1.0  0.75035  0.18566  0.54483  1.0000
  C   C195      1.0  0.85815  0.09563  0.34448  1.0000
  C   C196      1.0  0.91843  0.15768  0.32216  1.0000
  N   N54       1.0  0.90744  0.14238  0.40364  1.0000
  C   C197      1.0  0.88004  0.11180  0.41858  1.0000
  C   C198      1.0  0.87355  0.10105  0.51448  1.0000
  O   O18       1.0  0.84483  0.06932  0.53235  1.0000
  H   H142      1.0  0.87260  0.12028  0.55501  1.0000
  H   H143      1.0  0.89484  0.09920  0.53803  1.0000
  H   H144      1.0  0.82525  0.07219  0.53538  1.0000
  C   C199      1.0  0.99067  0.74696  0.33453  1.0000
  C   C200      1.0  0.97098  0.71140  0.32964  1.0000
  C   C201      1.0  0.93572  0.69319  0.32230  1.0000
  H   H145      1.0  0.98230  0.69748  0.32760  1.0000
  C   C202      1.0  0.52699  0.76504  0.33509  1.0000
  C   C203      1.0  0.58200  0.81885  0.32497  1.0000
  C   C204      1.0  0.54671  0.80062  0.33117  1.0000
  H   H146      1.0  0.53540  0.81455  0.32900  1.0000
  H   H147      1.0  0.64654  0.84085  0.30867  1.0000
  H   H148      1.0  0.87111  0.67115  0.30553  1.0000
  C   C205      1.0  0.76811  0.74710  0.33417  1.0000
  C   C206      1.0  0.80372  0.76354  0.33453  1.0000
  C   C207      1.0  0.82207  0.74811  0.36238  1.0000
  H   H149      1.0  0.81733  0.78819  0.31911  1.0000
  C   C208      1.0  0.74953  0.76462  0.33385  1.0000
  C   C209      1.0  0.69557  0.76364  0.36163  1.0000
  C   C210      1.0  0.71392  0.74815  0.33426  1.0000
  H   H150      1.0  0.70030  0.72349  0.31909  1.0000
  H   H151      1.0  0.67733  0.80052  0.45874  1.0000
  H   H152      1.0  0.84050  0.71104  0.45838  1.0000
  C   C211      1.0  0.76834  0.52412  0.33291  1.0000
  C   C212      1.0  0.75293  0.54425  0.33370  1.0000
  C   C213      1.0  0.77044  0.57917  0.34720  1.0000
  H   H153      1.0  0.72802  0.53376  0.32320  1.0000
  C   C214      1.0  0.74945  0.98791  0.33268  1.0000
  C   C215      1.0  0.74740  0.93285  0.34540  1.0000
  C   C216      1.0  0.76487  0.96778  0.33209  1.0000
  H   H154      1.0  0.78973  0.97828  0.32087  1.0000
  H   H155      1.0  0.70991  0.87520  0.41912  1.0000
  H   H156      1.0  0.80842  0.63698  0.41931  1.0000
  N   N55       1.0  0.61836  0.75095  0.26780  1.0000
  C   C217      1.0  0.64672  0.74908  0.26802  1.0000
  H   H157      1.0  0.66082  0.75577  0.21064  1.0000
  N   N56       1.0  0.74943  0.85939  0.27850  1.0000
  C   C218      1.0  0.75042  0.88877  0.26482  1.0000
  H   H158      1.0  0.73741  0.89051  0.21145  1.0000
  N   N57       1.0  0.64850  0.90071  0.26578  1.0000
  C   C219      1.0  0.61880  0.87257  0.25088  1.0000
  H   H159      1.0  0.61482  0.86148  0.18903  1.0000
  N   N58       1.0  0.89939  0.76157  0.26730  1.0000
  C   C220      1.0  0.87097  0.76333  0.26881  1.0000
  H   H160      1.0  0.85705  0.75743  0.21118  1.0000
  N   N59       1.0  0.76781  0.65231  0.28086  1.0000
  C   C221      1.0  0.76692  0.62300  0.26678  1.0000
  H   H161      1.0  0.78002  0.62138  0.21350  1.0000
  N   N60       1.0  0.86906  0.61117  0.26328  1.0000
  C   C222      1.0  0.89863  0.63938  0.24783  1.0000
  H   H162      1.0  0.90256  0.65027  0.18571  1.0000
  C   C223      1.0  0.91798  0.71103  0.32460  1.0000
  C   C224      1.0  0.93593  0.74642  0.33466  1.0000
  C   C225      1.0  0.97126  0.76312  0.33776  1.0000
  N   N61       1.0  0.88393  0.69423  0.32115  1.0000
  C   C226      1.0  0.54639  0.74886  0.33846  1.0000
  C   C227      1.0  0.58172  0.76554  0.33629  1.0000
  C   C228      1.0  0.59970  0.80097  0.32742  1.0000
  N   N62       1.0  0.63374  0.81779  0.32472  1.0000
  H   H163      1.0  0.64690  0.80735  0.33447  1.0000
  H   H164      1.0  0.87074  0.70465  0.33102  1.0000
  H   H165      1.0  0.98274  0.78827  0.34453  1.0000
  H   H166      1.0  0.53488  0.72368  0.34436  1.0000
  C   C229      1.0  0.80379  0.71406  0.38956  1.0000
  C   C230      1.0  0.76935  0.69481  0.36732  1.0000
  C   C231      1.0  0.75241  0.71168  0.34028  1.0000
  N   N63       1.0  0.81787  0.69909  0.43723  1.0000
  C   C232      1.0  0.76521  0.80006  0.33911  1.0000
  C   C233      1.0  0.74825  0.81697  0.36557  1.0000
  C   C234      1.0  0.71384  0.79774  0.38813  1.0000
  N   N64       1.0  0.69969  0.81261  0.43598  1.0000
  H   H167      1.0  0.71397  0.83253  0.47005  1.0000
  H   H168      1.0  0.80383  0.67922  0.47139  1.0000
  H   H169      1.0  0.72754  0.69717  0.32898  1.0000
  H   H170      1.0  0.79006  0.81456  0.32742  1.0000
  C   C235      1.0  0.80517  0.59512  0.36654  1.0000
  C   C236      1.0  0.82278  0.57766  0.35275  1.0000
  C   C237      1.0  0.80402  0.54297  0.33493  1.0000
  N   N65       1.0  0.82074  0.62658  0.40115  1.0000
  C   C238      1.0  0.71378  0.96905  0.33561  1.0000
  C   C239      1.0  0.69508  0.93435  0.35323  1.0000
  C   C240      1.0  0.71279  0.91692  0.36611  1.0000
  N   N66       1.0  0.69735  0.88556  0.40134  1.0000
  H   H171      1.0  0.67561  0.87556  0.42810  1.0000
  H   H172      1.0  0.84282  0.63674  0.42673  1.0000
  H   H173      1.0  0.81754  0.53138  0.32732  1.0000
  H   H174      1.0  0.70023  0.98067  0.32921  1.0000
  C   C241      1.0  0.59885  0.74720  0.34103  1.0000
  C   C242      1.0  0.66034  0.74712  0.35149  1.0000
  N   N67       1.0  0.64074  0.74304  0.42424  1.0000
  C   C243      1.0  0.61053  0.74144  0.42434  1.0000
  C   C244      1.0  0.59605  0.73808  0.51583  1.0000
  O   O19       1.0  0.56547  0.73837  0.52303  1.0000
  H   H175      1.0  0.61462  0.75721  0.56026  1.0000
  H   H176      1.0  0.59091  0.71403  0.54230  1.0000
  H   H177      1.0  0.57062  0.76167  0.52156  1.0000
  C   C245      1.0  0.76254  0.85180  0.35070  1.0000
  C   C246      1.0  0.76307  0.91343  0.33289  1.0000
  N   N68       1.0  0.77494  0.90523  0.40696  1.0000
  C   C247      1.0  0.77671  0.87684  0.41875  1.0000
  C   C248      1.0  0.78982  0.87389  0.50759  1.0000
  O   O20       1.0  0.79023  0.84376  0.52501  1.0000
  H   H178      1.0  0.77617  0.87803  0.56150  1.0000
  H   H179      1.0  0.81565  0.89395  0.51152  1.0000
  H   H180      1.0  0.76768  0.82651  0.54272  1.0000
  C   C249      1.0  0.65965  0.91643  0.34670  1.0000
  C   C250      1.0  0.59935  0.85436  0.32593  1.0000
  N   N69       1.0  0.61067  0.86975  0.40711  1.0000
  C   C251      1.0  0.63811  0.90038  0.42138  1.0000
  C   C252      1.0  0.64511  0.91115  0.51717  1.0000
  O   O21       1.0  0.67398  0.94284  0.53427  1.0000
  H   H181      1.0  0.64620  0.89192  0.55726  1.0000
  H   H182      1.0  0.62398  0.91309  0.54180  1.0000
  H   H183      1.0  0.69354  0.93991  0.53617  1.0000
  C   C253      1.0  0.91874  0.76468  0.34029  1.0000
  C   C254      1.0  0.85734  0.76476  0.35280  1.0000
  N   N70       1.0  0.87693  0.76834  0.42513  1.0000
  C   C255      1.0  0.90709  0.76981  0.42451  1.0000
  C   C256      1.0  0.92151  0.77257  0.51585  1.0000
  O   O22       1.0  0.95179  0.77171  0.52265  1.0000
  H   H184      1.0  0.90277  0.75341  0.55985  1.0000
  H   H185      1.0  0.92698  0.79662  0.54320  1.0000
  H   H186      1.0  0.94629  0.74831  0.52004  1.0000
  C   C257      1.0  0.75476  0.65989  0.35331  1.0000
  C   C258      1.0  0.75471  0.59859  0.33547  1.0000
  N   N71       1.0  0.74307  0.60669  0.41013  1.0000
  C   C259      1.0  0.74115  0.63499  0.42184  1.0000
  C   C260      1.0  0.72847  0.63814  0.51116  1.0000
  O   O23       1.0  0.72778  0.66816  0.52812  1.0000
  H   H187      1.0  0.74259  0.63444  0.56457  1.0000
  H   H188      1.0  0.70277  0.61790  0.51636  1.0000
  H   H189      1.0  0.75035  0.68566  0.54483  1.0000
  C   C261      1.0  0.85815  0.59563  0.34448  1.0000
  C   C262      1.0  0.91843  0.65768  0.32216  1.0000
  N   N72       1.0  0.90745  0.64238  0.40364  1.0000
  C   C263      1.0  0.88004  0.61180  0.41858  1.0000
  C   C264      1.0  0.87355  0.60105  0.51448  1.0000
  O   O24       1.0  0.84483  0.56932  0.53235  1.0000
  H   H190      1.0  0.87260  0.62028  0.55501  1.0000
  H   H191      1.0  0.89484  0.59920  0.53803  1.0000
  H   H192      1.0  0.82525  0.57219  0.53538  1.0000
