data_image0
_chemical_formula_structural       C3HCH3CHC3HCH3CHC3HCH3CHC3HCH3CHC3HCH3CHC3HCH3CHC3HCH3CHC3HCH3CHC3HCH3CHC3HCH3CHC3HCH3CHC3HCH3CHC3HCH3CHC3HCH3CHC3HCH3CHC3HCH3CHC3HCH3CHC3HCH3CHC6H3N3C6H3N3C6H3N3C6H3N3C6H3N3C6H3N3C6H3N3C6H3N3C6H3N3C6H3N3C6H3N3C6H3N3C3HCH3CHC3HCH3CHC3HCH3CHC3HCH3CHC3HCH3CHC3HCH3CHC3HCH3CHC3HCH3CHC3HCH3CHC3HCH3CHC3HCH3CHC3HCH3CHC3HCH3CHC3HCH3CHC3HCH3CHC3HCH3CHC3HCH3CHC3HCH3CH
_chemical_formula_sum              "C252 H216 N36"
_cell_length_a       52.3358
_cell_length_b       52.0922
_cell_length_c       14.6606
_cell_angle_alpha    90
_cell_angle_beta     90
_cell_angle_gamma    90.2661

_space_group_name_H-M_alt    "P 1"
_space_group_IT_number       1

loop_
  _space_group_symop_operation_xyz
  'x, y, z'

loop_
  _atom_site_type_symbol
  _atom_site_label
  _atom_site_symmetry_multiplicity
  _atom_site_fract_x
  _atom_site_fract_y
  _atom_site_fract_z
  _atom_site_occupancy
  C   C1        1.0  0.99338  0.53221  0.36111  1.0000
  C   C2        1.0  0.00959  0.52455  0.28748  1.0000
  C   C3        1.0  0.02490  0.50225  0.29636  1.0000
  H   H1        1.0  0.03628  0.49678  0.24294  1.0000
  C   C4        1.0  0.01148  0.53853  0.19887  1.0000
  H   H2        1.0  0.99863  0.55485  0.19365  1.0000
  H   H3        1.0  0.00683  0.52548  0.14291  1.0000
  H   H4        1.0  0.03097  0.54560  0.18941  1.0000
  C   C5        1.0  0.98055  0.55576  0.35809  1.0000
  H   H5        1.0  0.99124  0.57152  0.35464  1.0000
  C   C6        1.0  0.48686  0.99285  0.36076  1.0000
  C   C7        1.0  0.49469  0.00907  0.28705  1.0000
  C   C8        1.0  0.51723  0.02416  0.29551  1.0000
  H   H6        1.0  0.52280  0.03558  0.24208  1.0000
  C   C9        1.0  0.48065  0.01120  0.19880  1.0000
  H   H7        1.0  0.46409  0.99852  0.19395  1.0000
  H   H8        1.0  0.49341  0.00636  0.14248  1.0000
  H   H9        1.0  0.47404  0.03088  0.18961  1.0000
  C   C10       1.0  0.46319  0.98019  0.35815  1.0000
  H   H10       1.0  0.44766  0.99104  0.35574  1.0000
  C   C11       1.0  0.07820  0.32685  0.33907  1.0000
  C   C12       1.0  0.07177  0.31172  0.26256  1.0000
  C   C13       1.0  0.06159  0.28659  0.27153  1.0000
  H   H11       1.0  0.07436  0.31932  0.19873  1.0000
  C   C14       1.0  0.05441  0.27222  0.18723  1.0000
  H   H12       1.0  0.05775  0.28323  0.12493  1.0000
  H   H13       1.0  0.03415  0.26719  0.18938  1.0000
  H   H14       1.0  0.06560  0.25464  0.18256  1.0000
  C   C15       1.0  0.08950  0.35084  0.32699  1.0000
  H   H15       1.0  0.10450  0.35196  0.28546  1.0000
  C   C16       1.0  0.93983  0.69293  0.33768  1.0000
  C   C17       1.0  0.94625  0.70800  0.26101  1.0000
  C   C18       1.0  0.95663  0.73306  0.26974  1.0000
  H   H16       1.0  0.94353  0.70039  0.19725  1.0000
  C   C19       1.0  0.96379  0.74736  0.18528  1.0000
  H   H17       1.0  0.96026  0.73638  0.12307  1.0000
  H   H18       1.0  0.98409  0.75223  0.18701  1.0000
  H   H19       1.0  0.95273  0.76503  0.18084  1.0000
  C   C20       1.0  0.92839  0.66898  0.32587  1.0000
  H   H20       1.0  0.91330  0.66792  0.28477  1.0000
  C   C21       1.0  0.69243  0.07823  0.33968  1.0000
  C   C22       1.0  0.70732  0.07179  0.26287  1.0000
  C   C23       1.0  0.73223  0.06151  0.27131  1.0000
  H   H21       1.0  0.69968  0.07444  0.19919  1.0000
  C   C24       1.0  0.74635  0.05434  0.18672  1.0000
  H   H22       1.0  0.73535  0.05777  0.12464  1.0000
  H   H23       1.0  0.75112  0.03397  0.18859  1.0000
  H   H24       1.0  0.76397  0.06554  0.18190  1.0000
  C   C25       1.0  0.66867  0.08966  0.32809  1.0000
  H   H25       1.0  0.66776  0.10500  0.28778  1.0000
  C   C26       1.0  0.32607  0.93966  0.33947  1.0000
  C   C27       1.0  0.31156  0.94660  0.26231  1.0000
  C   C28       1.0  0.28683  0.95737  0.27021  1.0000
  H   H26       1.0  0.31932  0.94396  0.19884  1.0000
  C   C29       1.0  0.27308  0.96500  0.18537  1.0000
  H   H27       1.0  0.28415  0.96143  0.12354  1.0000
  H   H28       1.0  0.26876  0.98547  0.18756  1.0000
  H   H29       1.0  0.25523  0.95420  0.17979  1.0000
  C   C30       1.0  0.34960  0.92774  0.32842  1.0000
  H   H30       1.0  0.35017  0.91208  0.28967  1.0000
  C   C31       1.0  0.46099  0.77457  0.34878  1.0000
  C   C32       1.0  0.45118  0.78971  0.27556  1.0000
  C   C33       1.0  0.44597  0.81610  0.29012  1.0000
  H   H31       1.0  0.43976  0.82703  0.23644  1.0000
  C   C34       1.0  0.44631  0.77959  0.18194  1.0000
  H   H32       1.0  0.44978  0.75907  0.17531  1.0000
  H   H33       1.0  0.45860  0.78955  0.13310  1.0000
  H   H34       1.0  0.42641  0.78294  0.16329  1.0000
  C   C35       1.0  0.47046  0.74999  0.33249  1.0000
  H   H35       1.0  0.48686  0.74871  0.29857  1.0000
  C   C36       1.0  0.55721  0.24242  0.34775  1.0000
  C   C37       1.0  0.56700  0.22732  0.27440  1.0000
  C   C38       1.0  0.57209  0.20089  0.28866  1.0000
  H   H36       1.0  0.57831  0.18999  0.23491  1.0000
  C   C39       1.0  0.57195  0.23751  0.18095  1.0000
  H   H37       1.0  0.56857  0.25806  0.17456  1.0000
  H   H38       1.0  0.55965  0.22766  0.13191  1.0000
  H   H39       1.0  0.59186  0.23411  0.16236  1.0000
  C   C40       1.0  0.54783  0.26705  0.33174  1.0000
  H   H40       1.0  0.53143  0.26841  0.29788  1.0000
  C   C41       1.0  0.77528  0.55767  0.34893  1.0000
  C   C42       1.0  0.79050  0.56743  0.27572  1.0000
  C   C43       1.0  0.81689  0.57233  0.29008  1.0000
  H   H41       1.0  0.82785  0.57853  0.23640  1.0000
  C   C44       1.0  0.78046  0.57256  0.18228  1.0000
  H   H42       1.0  0.75995  0.56935  0.17582  1.0000
  H   H43       1.0  0.79006  0.56014  0.13317  1.0000
  H   H44       1.0  0.78421  0.59253  0.16386  1.0000
  C   C45       1.0  0.75064  0.54838  0.33262  1.0000
  H   H45       1.0  0.74909  0.53196  0.29842  1.0000
  C   C46       1.0  0.24316  0.46042  0.34750  1.0000
  C   C47       1.0  0.22783  0.45085  0.27428  1.0000
  C   C48       1.0  0.20134  0.44647  0.28842  1.0000
  H   H46       1.0  0.19031  0.44039  0.23476  1.0000
  C   C49       1.0  0.23785  0.44543  0.18103  1.0000
  H   H47       1.0  0.25842  0.44823  0.17478  1.0000
  H   H48       1.0  0.22854  0.45798  0.13163  1.0000
  H   H49       1.0  0.23373  0.42550  0.16286  1.0000
  C   C50       1.0  0.26796  0.46929  0.33129  1.0000
  H   H50       1.0  0.26977  0.48560  0.29660  1.0000
  C   C51       1.0  0.10662  0.10476  0.33260  1.0000
  C   C52       1.0  0.11216  0.08712  0.26221  1.0000
  C   C53       1.0  0.12642  0.06448  0.27748  1.0000
  H   H51       1.0  0.10443  0.09017  0.19891  1.0000
  C   C54       1.0  0.12954  0.04613  0.20006  1.0000
  H   H52       1.0  0.12054  0.05273  0.13713  1.0000
  H   H53       1.0  0.12101  0.02761  0.21750  1.0000
  H   H54       1.0  0.14982  0.04349  0.18578  1.0000
  C   C55       1.0  0.08860  0.12406  0.31744  1.0000
  H   H55       1.0  0.07658  0.12169  0.26529  1.0000
  C   C56       1.0  0.91249  0.91500  0.33168  1.0000
  C   C57       1.0  0.90699  0.93271  0.26145  1.0000
  C   C58       1.0  0.89277  0.95536  0.27701  1.0000
  H   H56       1.0  0.91477  0.92974  0.19819  1.0000
  C   C59       1.0  0.88972  0.97380  0.19983  1.0000
  H   H57       1.0  0.89874  0.96727  0.13686  1.0000
  H   H58       1.0  0.89827  0.99229  0.21760  1.0000
  H   H59       1.0  0.86945  0.97650  0.18546  1.0000
  C   C60       1.0  0.93049  0.89570  0.31630  1.0000
  H   H60       1.0  0.94258  0.89815  0.26438  1.0000
  C   C61       1.0  0.91364  0.10724  0.33147  1.0000
  C   C62       1.0  0.93115  0.11286  0.26081  1.0000
  C   C63       1.0  0.95414  0.12663  0.27627  1.0000
  H   H61       1.0  0.92773  0.10549  0.19712  1.0000
  C   C64       1.0  0.97228  0.12986  0.19844  1.0000
  H   H62       1.0  0.96529  0.12132  0.13511  1.0000
  H   H63       1.0  0.99051  0.12084  0.21460  1.0000
  H   H64       1.0  0.97546  0.15025  0.18554  1.0000
  C   C65       1.0  0.89401  0.08944  0.31597  1.0000
  H   H65       1.0  0.89599  0.07757  0.26309  1.0000
  C   C66       1.0  0.10538  0.91229  0.33194  1.0000
  C   C67       1.0  0.08836  0.90595  0.26050  1.0000
  C   C68       1.0  0.06538  0.89214  0.27564  1.0000
  H   H66       1.0  0.09210  0.91288  0.19641  1.0000
  C   C69       1.0  0.04775  0.88815  0.19676  1.0000
  H   H67       1.0  0.05509  0.89619  0.13310  1.0000
  H   H68       1.0  0.02937  0.89719  0.21047  1.0000
  H   H69       1.0  0.04476  0.86763  0.18581  1.0000
  C   C70       1.0  0.12494  0.93015  0.31625  1.0000
  H   H70       1.0  0.12296  0.94192  0.26307  1.0000
  C   C71       1.0  0.38320  0.55658  0.34546  1.0000
  C   C72       1.0  0.38756  0.57480  0.27422  1.0000
  C   C73       1.0  0.40186  0.59738  0.29276  1.0000
  H   H71       1.0  0.40604  0.60963  0.24008  1.0000
  C   C74       1.0  0.37870  0.57128  0.17825  1.0000
  H   H72       1.0  0.36660  0.55440  0.16879  1.0000
  H   H73       1.0  0.39519  0.56948  0.13312  1.0000
  H   H74       1.0  0.36757  0.58793  0.15709  1.0000
  C   C75       1.0  0.37506  0.53178  0.32375  1.0000
  H   H75       1.0  0.38607  0.52195  0.28096  1.0000
  C   C76       1.0  0.63569  0.46025  0.34522  1.0000
  C   C77       1.0  0.63136  0.44199  0.27406  1.0000
  C   C78       1.0  0.61695  0.41947  0.29252  1.0000
  H   H76       1.0  0.61280  0.40720  0.23988  1.0000
  C   C79       1.0  0.64036  0.44544  0.17823  1.0000
  H   H77       1.0  0.65253  0.46227  0.16890  1.0000
  H   H78       1.0  0.62393  0.44728  0.13282  1.0000
  H   H79       1.0  0.65145  0.42874  0.15734  1.0000
  C   C80       1.0  0.64382  0.48506  0.32351  1.0000
  H   H80       1.0  0.63288  0.49483  0.28033  1.0000
  C   C81       1.0  0.55834  0.63535  0.34560  1.0000
  C   C82       1.0  0.57656  0.63128  0.27450  1.0000
  C   C83       1.0  0.59905  0.61715  0.29309  1.0000
  H   H81       1.0  0.61130  0.61315  0.24049  1.0000
  C   C84       1.0  0.57310  0.64025  0.17863  1.0000
  H   H82       1.0  0.55628  0.65222  0.16917  1.0000
  H   H83       1.0  0.57140  0.62372  0.13323  1.0000
  H   H84       1.0  0.58967  0.65165  0.15782  1.0000
  C   C85       1.0  0.53363  0.64324  0.32374  1.0000
  H   H85       1.0  0.52393  0.63212  0.28061  1.0000
  C   C86       1.0  0.46005  0.38161  0.34539  1.0000
  C   C87       1.0  0.44204  0.38600  0.27386  1.0000
  C   C88       1.0  0.41945  0.40000  0.29241  1.0000
  H   H86       1.0  0.40737  0.40426  0.23957  1.0000
  C   C89       1.0  0.44583  0.37754  0.17758  1.0000
  H   H87       1.0  0.46270  0.36565  0.16807  1.0000
  H   H88       1.0  0.44766  0.39431  0.13336  1.0000
  H   H89       1.0  0.42935  0.36623  0.15530  1.0000
  C   C90       1.0  0.48486  0.37393  0.32409  1.0000
  H   H90       1.0  0.49461  0.38527  0.28180  1.0000
  C   C91       1.0  0.08902  0.39584  0.35820  1.0000
  C   C92       1.0  0.07096  0.41596  0.36071  1.0000
  C   C93       1.0  0.07849  0.44216  0.35658  1.0000
  C   C94       1.0  0.10493  0.44783  0.35095  1.0000
  C   C95       1.0  0.12362  0.42820  0.35112  1.0000
  C   C96       1.0  0.11529  0.40239  0.35363  1.0000
  H   H91       1.0  0.11074  0.46659  0.34672  1.0000
  H   H92       1.0  0.12865  0.38809  0.35409  1.0000
  H   H93       1.0  0.05194  0.41138  0.36321  1.0000
  N   N1        1.0  0.08064  0.37150  0.36344  1.0000
  N   N2        1.0  0.06197  0.46189  0.35443  1.0000
  N   N3        1.0  0.14882  0.43261  0.34572  1.0000
  C   C97       1.0  0.92898  0.62391  0.35682  1.0000
  C   C98       1.0  0.94710  0.60385  0.36057  1.0000
  C   C99       1.0  0.93967  0.57761  0.35732  1.0000
  C   C100      1.0  0.91322  0.57187  0.35333  1.0000
  C   C101      1.0  0.89448  0.59143  0.35172  1.0000
  C   C102      1.0  0.90273  0.61728  0.35222  1.0000
  H   H94       1.0  0.90744  0.55308  0.35088  1.0000
  H   H95       1.0  0.88933  0.63153  0.35176  1.0000
  H   H96       1.0  0.96604  0.60856  0.36483  1.0000
  N   N4        1.0  0.93733  0.64828  0.36178  1.0000
  N   N5        1.0  0.95598  0.55771  0.35908  1.0000
  N   N6        1.0  0.86928  0.58684  0.34662  1.0000
  C   C103      1.0  0.62373  0.08874  0.35786  1.0000
  C   C104      1.0  0.60369  0.07041  0.36027  1.0000
  C   C105      1.0  0.57763  0.07775  0.35593  1.0000
  C   C106      1.0  0.57200  0.10425  0.35026  1.0000
  C   C107      1.0  0.59152  0.12321  0.35062  1.0000
  C   C108      1.0  0.61722  0.11508  0.35321  1.0000
  H   H97       1.0  0.55333  0.10991  0.34591  1.0000
  H   H98       1.0  0.63144  0.12864  0.35370  1.0000
  H   H99       1.0  0.60823  0.05134  0.36288  1.0000
  N   N7        1.0  0.64795  0.08045  0.36303  1.0000
  N   N8        1.0  0.55792  0.06108  0.35388  1.0000
  N   N9        1.0  0.58697  0.14847  0.34520  1.0000
  C   C109      1.0  0.39469  0.92850  0.35667  1.0000
  C   C110      1.0  0.41485  0.94669  0.36008  1.0000
  C   C111      1.0  0.44089  0.93921  0.35670  1.0000
  C   C112      1.0  0.44635  0.91265  0.35268  1.0000
  C   C113      1.0  0.42671  0.89382  0.35140  1.0000
  C   C114      1.0  0.40105  0.90211  0.35211  1.0000
  H   H100      1.0  0.46500  0.90684  0.35004  1.0000
  H   H101      1.0  0.38676  0.88863  0.35179  1.0000
  H   H102      1.0  0.41037  0.96574  0.36419  1.0000
  N   N10       1.0  0.37054  0.93699  0.36153  1.0000
  N   N11       1.0  0.46089  0.95552  0.35829  1.0000
  N   N12       1.0  0.43117  0.86854  0.34623  1.0000
  C   C115      1.0  0.05205  0.20599  0.36114  1.0000
  C   C116      1.0  0.07178  0.18750  0.36580  1.0000
  C   C117      1.0  0.06633  0.16091  0.36485  1.0000
  C   C118      1.0  0.04050  0.15293  0.36277  1.0000
  C   C119      1.0  0.02021  0.17075  0.35961  1.0000
  C   C120      1.0  0.02635  0.19719  0.35645  1.0000
  H   H103      1.0  0.03646  0.13369  0.36214  1.0000
  H   H104      1.0  0.01183  0.21014  0.35031  1.0000
  H   H105      1.0  0.09045  0.19344  0.36815  1.0000
  N   N13       1.0  0.05899  0.23077  0.35711  1.0000
  N   N14       1.0  0.08502  0.14351  0.37045  1.0000
  N   N15       1.0  0.99587  0.16307  0.35079  1.0000
  C   C121      1.0  0.96678  0.81362  0.35981  1.0000
  C   C122      1.0  0.94710  0.83216  0.36427  1.0000
  C   C123      1.0  0.95262  0.85873  0.36337  1.0000
  C   C124      1.0  0.97847  0.86664  0.36147  1.0000
  C   C125      1.0  0.99872  0.84877  0.35855  1.0000
  C   C126      1.0  0.99251  0.82235  0.35541  1.0000
  H   H106      1.0  0.98254  0.88587  0.36086  1.0000
  H   H107      1.0  0.00700  0.80936  0.34957  1.0000
  H   H108      1.0  0.92841  0.82627  0.36647  1.0000
  N   N16       1.0  0.95973  0.78887  0.35576  1.0000
  N   N17       1.0  0.93397  0.87617  0.36897  1.0000
  N   N18       1.0  0.02312  0.85638  0.35035  1.0000
  C   C127      1.0  0.81256  0.05213  0.36090  1.0000
  C   C128      1.0  0.83099  0.07210  0.36551  1.0000
  C   C129      1.0  0.85744  0.06684  0.36442  1.0000
  C   C130      1.0  0.86534  0.04096  0.36236  1.0000
  C   C131      1.0  0.84759  0.02042  0.35942  1.0000
  C   C132      1.0  0.82128  0.02637  0.35629  1.0000
  H   H109      1.0  0.88449  0.03706  0.36159  1.0000
  H   H110      1.0  0.80837  0.01168  0.35028  1.0000
  H   H111      1.0  0.82512  0.09082  0.36791  1.0000
  N   N19       1.0  0.78790  0.05896  0.35707  1.0000
  N   N20       1.0  0.87490  0.08563  0.37008  1.0000
  N   N21       1.0  0.85539  0.99607  0.35043  1.0000
  C   C133      1.0  0.20639  0.96738  0.36084  1.0000
  C   C134      1.0  0.18790  0.94748  0.36567  1.0000
  C   C135      1.0  0.16147  0.95283  0.36464  1.0000
  C   C136      1.0  0.15364  0.97873  0.36241  1.0000
  C   C137      1.0  0.17145  0.99921  0.35934  1.0000
  C   C138      1.0  0.19775  0.99317  0.35621  1.0000
  H   H112      1.0  0.13450  0.98267  0.36164  1.0000
  H   H113      1.0  0.21070  0.00783  0.35024  1.0000
  H   H114      1.0  0.19371  0.92874  0.36814  1.0000
  N   N22       1.0  0.23100  0.96039  0.35704  1.0000
  N   N23       1.0  0.14400  0.93406  0.37045  1.0000
  N   N24       1.0  0.16372  0.02359  0.35052  1.0000
  C   C139      1.0  0.46586  0.70470  0.35354  1.0000
  C   C140      1.0  0.44620  0.68598  0.34909  1.0000
  C   C141      1.0  0.45180  0.65948  0.34822  1.0000
  C   C142      1.0  0.47768  0.65186  0.34893  1.0000
  C   C143      1.0  0.49790  0.66993  0.35253  1.0000
  C   C144      1.0  0.49162  0.69627  0.35717  1.0000
  H   H115      1.0  0.48179  0.63267  0.34861  1.0000
  H   H116      1.0  0.50604  0.70945  0.36408  1.0000
  H   H117      1.0  0.42750  0.69168  0.34799  1.0000
  N   N25       1.0  0.45911  0.72943  0.36032  1.0000
  N   N26       1.0  0.43323  0.64179  0.34259  1.0000
  N   N27       1.0  0.52227  0.66247  0.36126  1.0000
  C   C145      1.0  0.55256  0.31232  0.35299  1.0000
  C   C146      1.0  0.57227  0.33101  0.34865  1.0000
  C   C147      1.0  0.56671  0.35753  0.34796  1.0000
  C   C148      1.0  0.54084  0.36520  0.34876  1.0000
  C   C149      1.0  0.52059  0.34715  0.35234  1.0000
  C   C150      1.0  0.52683  0.32080  0.35676  1.0000
  H   H118      1.0  0.53676  0.38439  0.34854  1.0000
  H   H119      1.0  0.51238  0.30764  0.36354  1.0000
  H   H120      1.0  0.59095  0.32528  0.34754  1.0000
  N   N28       1.0  0.55926  0.28757  0.35963  1.0000
  N   N29       1.0  0.58533  0.37518  0.34235  1.0000
  N   N30       1.0  0.49620  0.35457  0.36081  1.0000
  C   C151      1.0  0.70562  0.55311  0.35393  1.0000
  C   C152      1.0  0.68716  0.57288  0.34952  1.0000
  C   C153      1.0  0.66072  0.56725  0.34855  1.0000
  C   C154      1.0  0.65292  0.54125  0.34905  1.0000
  C   C155      1.0  0.67071  0.52093  0.35264  1.0000
  C   C156      1.0  0.69698  0.52724  0.35745  1.0000
  H   H121      1.0  0.63378  0.53709  0.34861  1.0000
  H   H122      1.0  0.70996  0.51274  0.36436  1.0000
  H   H123      1.0  0.69301  0.59166  0.34852  1.0000
  N   N31       1.0  0.73033  0.55983  0.36078  1.0000
  N   N32       1.0  0.64323  0.58587  0.34290  1.0000
  N   N33       1.0  0.66305  0.49645  0.36124  1.0000
  C   C157      1.0  0.31285  0.46412  0.35344  1.0000
  C   C158      1.0  0.33118  0.44423  0.34908  1.0000
  C   C159      1.0  0.35766  0.44968  0.34829  1.0000
  C   C160      1.0  0.36564  0.47563  0.34897  1.0000
  C   C161      1.0  0.34798  0.49606  0.35267  1.0000
  C   C162      1.0  0.32167  0.48993  0.35730  1.0000
  H   H124      1.0  0.38480  0.47965  0.34863  1.0000
  H   H125      1.0  0.30879  0.50452  0.36420  1.0000
  H   H126      1.0  0.32520  0.42548  0.34797  1.0000
  N   N34       1.0  0.28808  0.45764  0.36019  1.0000
  N   N35       1.0  0.37507  0.43097  0.34254  1.0000
  N   N36       1.0  0.35574  0.52049  0.36120  1.0000
  C   C163      1.0  0.02469  0.48701  0.37595  1.0000
  C   C164      1.0  0.00823  0.49459  0.44732  1.0000
  C   C165      1.0  0.99293  0.51696  0.44208  1.0000
  H   H127      1.0  0.00772  0.48370  0.50551  1.0000
  C   C166      1.0  0.97703  0.52400  0.52269  1.0000
  H   H128      1.0  0.97937  0.51082  0.57997  1.0000
  H   H129      1.0  0.95686  0.52385  0.50383  1.0000
  H   H130      1.0  0.98226  0.54318  0.54644  1.0000
  C   C167      1.0  0.03884  0.46435  0.38365  1.0000
  H   H131      1.0  0.03083  0.44971  0.41671  1.0000
  C   C168      1.0  0.53254  0.02370  0.37473  1.0000
  C   C169      1.0  0.52479  0.00722  0.44616  1.0000
  C   C170      1.0  0.50219  0.99213  0.44134  1.0000
  H   H132      1.0  0.53572  0.00655  0.50411  1.0000
  C   C171      1.0  0.49499  0.97619  0.52198  1.0000
  H   H133      1.0  0.50827  0.97832  0.57895  1.0000
  H   H134      1.0  0.49466  0.95594  0.50292  1.0000
  H   H135      1.0  0.47607  0.98167  0.54625  1.0000
  C   C172      1.0  0.55533  0.03774  0.38213  1.0000
  H   H136      1.0  0.56988  0.02955  0.41442  1.0000
  C   C173      1.0  0.05838  0.27581  0.36038  1.0000
  C   C174      1.0  0.06513  0.29076  0.43856  1.0000
  C   C175      1.0  0.07488  0.31598  0.42642  1.0000
  H   H137      1.0  0.08009  0.32655  0.48250  1.0000
  C   C176      1.0  0.06290  0.28145  0.53449  1.0000
  H   H138      1.0  0.05585  0.26180  0.54005  1.0000
  H   H139      1.0  0.04984  0.29378  0.57232  1.0000
  H   H140      1.0  0.08162  0.28217  0.56733  1.0000
  C   C177      1.0  0.04675  0.25185  0.37033  1.0000
  H   H141      1.0  0.02849  0.25145  0.38876  1.0000
  C   C178      1.0  0.96005  0.74383  0.35850  1.0000
  C   C179      1.0  0.95329  0.72895  0.43684  1.0000
  C   C180      1.0  0.94334  0.70379  0.42493  1.0000
  H   H142      1.0  0.93815  0.69327  0.48113  1.0000
  C   C181      1.0  0.95572  0.73826  0.53269  1.0000
  H   H143      1.0  0.96293  0.75786  0.53806  1.0000
  H   H144      1.0  0.96873  0.72584  0.57034  1.0000
  H   H145      1.0  0.93704  0.73770  0.56584  1.0000
  C   C182      1.0  0.97189  0.76770  0.36816  1.0000
  H   H146      1.0  0.99021  0.76796  0.38577  1.0000
  C   C183      1.0  0.74306  0.05823  0.35993  1.0000
  C   C184      1.0  0.72836  0.06500  0.43842  1.0000
  C   C185      1.0  0.70334  0.07485  0.42680  1.0000
  H   H147      1.0  0.69296  0.08007  0.48309  1.0000
  C   C186      1.0  0.73775  0.06271  0.53415  1.0000
  H   H148      1.0  0.75723  0.05556  0.53930  1.0000
  H   H149      1.0  0.72537  0.04961  0.57217  1.0000
  H   H150      1.0  0.73732  0.08150  0.56707  1.0000
  C   C187      1.0  0.76683  0.04654  0.36934  1.0000
  H   H151      1.0  0.76710  0.02811  0.38663  1.0000
  C   C188      1.0  0.27581  0.96064  0.35853  1.0000
  C   C189      1.0  0.29013  0.95336  0.43732  1.0000
  C   C190      1.0  0.31497  0.94301  0.42629  1.0000
  H   H152      1.0  0.32508  0.93743  0.48278  1.0000
  C   C191      1.0  0.28051  0.95561  0.53276  1.0000
  H   H153      1.0  0.26119  0.96323  0.53742  1.0000
  H   H154      1.0  0.29308  0.96829  0.57174  1.0000
  H   H155      1.0  0.28038  0.93671  0.56500  1.0000
  C   C192      1.0  0.25221  0.97270  0.36734  1.0000
  H   H156      1.0  0.25219  0.99128  0.38249  1.0000
  C   C193      1.0  0.45036  0.82817  0.37499  1.0000
  C   C194      1.0  0.45937  0.81269  0.44720  1.0000
  C   C195      1.0  0.46477  0.78625  0.43586  1.0000
  H   H157      1.0  0.46275  0.82111  0.50926  1.0000
  C   C196      1.0  0.47504  0.77161  0.51519  1.0000
  H   H158      1.0  0.47688  0.78328  0.57672  1.0000
  H   H159      1.0  0.49393  0.76410  0.49881  1.0000
  H   H160      1.0  0.46228  0.75559  0.53106  1.0000
  C   C197      1.0  0.44797  0.85469  0.38733  1.0000
  H   H161      1.0  0.45959  0.86321  0.43192  1.0000
  C   C198      1.0  0.56761  0.18876  0.37335  1.0000
  C   C199      1.0  0.55863  0.20420  0.44570  1.0000
  C   C200      1.0  0.55333  0.23068  0.43465  1.0000
  H   H162      1.0  0.55516  0.19573  0.50760  1.0000
  C   C201      1.0  0.54306  0.24527  0.51408  1.0000
  H   H163      1.0  0.54114  0.23354  0.57546  1.0000
  H   H164      1.0  0.52420  0.25286  0.49766  1.0000
  H   H165      1.0  0.55586  0.26123  0.53024  1.0000
  C   C202      1.0  0.56994  0.16223  0.38543  1.0000
  H   H166      1.0  0.55818  0.15366  0.42944  1.0000
  C   C203      1.0  0.82888  0.56766  0.37474  1.0000
  C   C204      1.0  0.81335  0.55871  0.44697  1.0000
  C   C205      1.0  0.78690  0.55362  0.43582  1.0000
  H   H167      1.0  0.82170  0.55515  0.50889  1.0000
  C   C206      1.0  0.77217  0.54338  0.51514  1.0000
  H   H168      1.0  0.78380  0.54133  0.57653  1.0000
  H   H169      1.0  0.76430  0.52451  0.49857  1.0000
  H   H170      1.0  0.75651  0.55637  0.53133  1.0000
  C   C207      1.0  0.85533  0.56983  0.38691  1.0000
  H   H171      1.0  0.86368  0.55800  0.43106  1.0000
  C   C208      1.0  0.18938  0.45148  0.37288  1.0000
  C   C209      1.0  0.20501  0.46023  0.44515  1.0000
  C   C210      1.0  0.23155  0.46481  0.43420  1.0000
  H   H172      1.0  0.19667  0.46404  0.50690  1.0000
  C   C211      1.0  0.24639  0.47489  0.51350  1.0000
  H   H173      1.0  0.23475  0.47725  0.57472  1.0000
  H   H174      1.0  0.25462  0.49360  0.49669  1.0000
  H   H175      1.0  0.26180  0.46165  0.53013  1.0000
  C   C212      1.0  0.16290  0.44973  0.38487  1.0000
  H   H176      1.0  0.15466  0.46184  0.42832  1.0000
  C   C213      1.0  0.13610  0.05934  0.36673  1.0000
  C   C214      1.0  0.13175  0.07757  0.43785  1.0000
  C   C215      1.0  0.11714  0.09984  0.41952  1.0000
  H   H177      1.0  0.11300  0.11208  0.47216  1.0000
  C   C216      1.0  0.14092  0.07435  0.53352  1.0000
  H   H178      1.0  0.15324  0.05773  0.54277  1.0000
  H   H179      1.0  0.12459  0.07227  0.57929  1.0000
  H   H180      1.0  0.15193  0.09125  0.55401  1.0000
  C   C217      1.0  0.14449  0.03471  0.38858  1.0000
  H   H181      1.0  0.13364  0.02478  0.43192  1.0000
  C   C218      1.0  0.88308  0.96040  0.36632  1.0000
  C   C219      1.0  0.88739  0.94211  0.43723  1.0000
  C   C220      1.0  0.90198  0.91985  0.41866  1.0000
  H   H182      1.0  0.90609  0.90755  0.47113  1.0000
  C   C221      1.0  0.87820  0.94527  0.53292  1.0000
  H   H183      1.0  0.86591  0.96190  0.54231  1.0000
  H   H184      1.0  0.89453  0.94729  0.57874  1.0000
  H   H185      1.0  0.86717  0.92836  0.55322  1.0000
  C   C222      1.0  0.87468  0.98501  0.38828  1.0000
  H   H186      1.0  0.88551  0.99494  0.43169  1.0000
  C   C223      1.0  0.95978  0.13570  0.36603  1.0000
  C   C224      1.0  0.94170  0.13135  0.43748  1.0000
  C   C225      1.0  0.91907  0.11723  0.41893  1.0000
  H   H187      1.0  0.90693  0.11301  0.47173  1.0000
  C   C226      1.0  0.94542  0.14000  0.53363  1.0000
  H   H188      1.0  0.96235  0.15198  0.54313  1.0000
  H   H189      1.0  0.94712  0.12332  0.57827  1.0000
  H   H190      1.0  0.92898  0.15129  0.55540  1.0000
  C   C227      1.0  0.98456  0.14360  0.38755  1.0000
  H   H191      1.0  0.99429  0.13240  0.43005  1.0000
  C   C228      1.0  0.05924  0.88378  0.36587  1.0000
  C   C229      1.0  0.07687  0.88882  0.43818  1.0000
  C   C230      1.0  0.09950  0.90298  0.41994  1.0000
  H   H192      1.0  0.11130  0.90772  0.47319  1.0000
  C   C231      1.0  0.07263  0.88093  0.53488  1.0000
  H   H193      1.0  0.05577  0.86885  0.54427  1.0000
  H   H194      1.0  0.07049  0.89795  0.57759  1.0000
  H   H195      1.0  0.08904  0.87000  0.55914  1.0000
  C   C232      1.0  0.03435  0.87601  0.38637  1.0000
  H   H196      1.0  0.02449  0.88742  0.42775  1.0000
  C   C233      1.0  0.41205  0.60262  0.38002  1.0000
  C   C234      1.0  0.40649  0.58496  0.45050  1.0000
  C   C235      1.0  0.39251  0.56203  0.43503  1.0000
  H   H197      1.0  0.41400  0.58825  0.51403  1.0000
  C   C236      1.0  0.38932  0.54373  0.51265  1.0000
  H   H198      1.0  0.39806  0.55058  0.57581  1.0000
  H   H199      1.0  0.39807  0.52534  0.49588  1.0000
  H   H200      1.0  0.36902  0.54073  0.52618  1.0000
  C   C237      1.0  0.42987  0.62224  0.39542  1.0000
  H   H201      1.0  0.44197  0.62000  0.44735  1.0000
  C   C238      1.0  0.60664  0.41431  0.37965  1.0000
  C   C239      1.0  0.61220  0.43198  0.45012  1.0000
  C   C240      1.0  0.62625  0.45487  0.43469  1.0000
  H   H202      1.0  0.60457  0.42877  0.51352  1.0000
  C   C241      1.0  0.62938  0.47321  0.51224  1.0000
  H   H203      1.0  0.62056  0.46641  0.57533  1.0000
  H   H204      1.0  0.62066  0.49160  0.49523  1.0000
  H   H205      1.0  0.64966  0.47620  0.52603  1.0000
  C   C242      1.0  0.58872  0.39477  0.39498  1.0000
  H   H206      1.0  0.57659  0.39709  0.44677  1.0000
  C   C243      1.0  0.60422  0.60687  0.38025  1.0000
  C   C244      1.0  0.58655  0.61217  0.45059  1.0000
  C   C245      1.0  0.56370  0.62595  0.43508  1.0000
  H   H207      1.0  0.58978  0.60457  0.51404  1.0000
  C   C246      1.0  0.54539  0.62881  0.51249  1.0000
  H   H208      1.0  0.55217  0.62004  0.57561  1.0000
  H   H209      1.0  0.52714  0.61980  0.49533  1.0000
  H   H210      1.0  0.54230  0.64914  0.52631  1.0000
  C   C247      1.0  0.62374  0.58912  0.39560  1.0000
  H   H211      1.0  0.62144  0.57690  0.44737  1.0000
  C   C248      1.0  0.41397  0.40980  0.38001  1.0000
  C   C249      1.0  0.43140  0.40415  0.45076  1.0000
  C   C250      1.0  0.45435  0.39052  0.43527  1.0000
  H   H212      1.0  0.42797  0.41145  0.51451  1.0000
  C   C251      1.0  0.47241  0.38730  0.51326  1.0000
  H   H213      1.0  0.46538  0.39570  0.57667  1.0000
  H   H214      1.0  0.49068  0.39646  0.49750  1.0000
  H   H215      1.0  0.47552  0.36690  0.52582  1.0000
  C   C252      1.0  0.39445  0.42754  0.39560  1.0000
  H   H216      1.0  0.39672  0.43965  0.44770  1.0000
