data_image0
_chemical_formula_structural       C3H3CH3C3H3CH3C3H3CH3C3H3CH3C3H3CH3C3H3CH3C5H3CH3C5H3CH3C5H3CH3C5H3CH3C5H3CH3C5H3CH3C5H3CH3C5H3CH3C5H3CH3C5H3CH3C5H3CH3C5H3CH3NC18H12NC18H12NC18H12NC18H12NC18H12NC18H12NC18H12NC18H12NC18H12NC18H12NC18H12NC18H12C5H3CH3C5H3CH3C5H3CH3C5H3CH3C5H3CH3C5H3CH3C3H3CH3C3H3CH3C3H3CH3C3H3CH3C3H3CH3C3H3CH3C3H3CH3C3H3CH3C3H3CH3C3H3CH3C3H3CH3C3H3CH3
_chemical_formula_sum              "C396 H360 N12"
_cell_length_a       64.2131
_cell_length_b       64.2131
_cell_length_c       14.6861
_cell_angle_alpha    90
_cell_angle_beta     90
_cell_angle_gamma    120

_space_group_name_H-M_alt    "P 1"
_space_group_IT_number       1

loop_
  _space_group_symop_operation_xyz
  'x, y, z'

loop_
  _atom_site_type_symbol
  _atom_site_label
  _atom_site_symmetry_multiplicity
  _atom_site_fract_x
  _atom_site_fract_y
  _atom_site_fract_z
  _atom_site_occupancy
  C   C1        1.0  0.19276  0.38045  0.27865  1.0000
  C   C2        1.0  0.20397  0.40620  0.28234  1.0000
  C   C3        1.0  0.17922  0.36750  0.19422  1.0000
  H   H1        1.0  0.17459  0.34873  0.19058  1.0000
  H   H2        1.0  0.19012  0.37601  0.13392  1.0000
  H   H3        1.0  0.16251  0.36797  0.18944  1.0000
  C   C4        1.0  0.19757  0.41888  0.21105  1.0000
  H   H4        1.0  0.20322  0.43751  0.22704  1.0000
  H   H5        1.0  0.17810  0.41003  0.20293  1.0000
  H   H6        1.0  0.20566  0.41864  0.14603  1.0000
  C   C5        1.0  0.63361  0.80495  0.27873  1.0000
  C   C6        1.0  0.60786  0.79042  0.28243  1.0000
  C   C7        1.0  0.64658  0.80434  0.19437  1.0000
  H   H7        1.0  0.66534  0.81846  0.19070  1.0000
  H   H8        1.0  0.63807  0.80670  0.13401  1.0000
  H   H9        1.0  0.64609  0.78714  0.18974  1.0000
  C   C8        1.0  0.59519  0.77132  0.21124  1.0000
  H   H10       1.0  0.57655  0.75835  0.22724  1.0000
  H   H11       1.0  0.60403  0.76068  0.20325  1.0000
  H   H12       1.0  0.59544  0.77962  0.14615  1.0000
  C   C9        1.0  0.20910  0.82135  0.27868  1.0000
  C   C10       1.0  0.22363  0.81014  0.28237  1.0000
  C   C11       1.0  0.20971  0.83492  0.19429  1.0000
  H   H13       1.0  0.19558  0.83956  0.19064  1.0000
  H   H14       1.0  0.20733  0.82403  0.13395  1.0000
  H   H15       1.0  0.22690  0.85162  0.18959  1.0000
  C   C12       1.0  0.24272  0.81655  0.21113  1.0000
  H   H16       1.0  0.25569  0.81088  0.22711  1.0000
  H   H17       1.0  0.25336  0.83602  0.20310  1.0000
  H   H18       1.0  0.23441  0.80848  0.14606  1.0000
  C   C13       1.0  0.83092  0.62406  0.27873  1.0000
  C   C14       1.0  0.81971  0.59831  0.28242  1.0000
  C   C15       1.0  0.84451  0.63702  0.19437  1.0000
  H   H19       1.0  0.84916  0.65579  0.19071  1.0000
  H   H20       1.0  0.83364  0.62852  0.13400  1.0000
  H   H21       1.0  0.86121  0.63653  0.18976  1.0000
  C   C16       1.0  0.82613  0.58563  0.21123  1.0000
  H   H22       1.0  0.82046  0.56699  0.22722  1.0000
  H   H23       1.0  0.84560  0.59447  0.20327  1.0000
  H   H24       1.0  0.81808  0.58589  0.14613  1.0000
  C   C17       1.0  0.39003  0.19958  0.27877  1.0000
  C   C18       1.0  0.41578  0.21411  0.28248  1.0000
  C   C19       1.0  0.37707  0.20023  0.19445  1.0000
  H   H25       1.0  0.35830  0.18611  0.19075  1.0000
  H   H26       1.0  0.38558  0.19788  0.13405  1.0000
  H   H27       1.0  0.37756  0.21742  0.18991  1.0000
  C   C20       1.0  0.42845  0.23324  0.21136  1.0000
  H   H28       1.0  0.44710  0.24620  0.22739  1.0000
  H   H29       1.0  0.41962  0.24388  0.20348  1.0000
  H   H30       1.0  0.42821  0.22495  0.14622  1.0000
  C   C21       1.0  0.81448  0.18313  0.27880  1.0000
  C   C22       1.0  0.79995  0.19435  0.28251  1.0000
  C   C23       1.0  0.81383  0.16952  0.19448  1.0000
  H   H31       1.0  0.82795  0.16487  0.19079  1.0000
  H   H32       1.0  0.81617  0.18037  0.13408  1.0000
  H   H33       1.0  0.79663  0.15281  0.18997  1.0000
  C   C24       1.0  0.78082  0.18790  0.21140  1.0000
  H   H34       1.0  0.76785  0.19357  0.22742  1.0000
  H   H35       1.0  0.77018  0.16842  0.20353  1.0000
  H   H36       1.0  0.78910  0.19593  0.14625  1.0000
  C   C25       1.0  0.21917  0.18351  0.35950  1.0000
  C   C26       1.0  0.23066  0.20806  0.33035  1.0000
  C   C27       1.0  0.21775  0.22101  0.33018  1.0000
  C   C28       1.0  0.19321  0.20958  0.35945  1.0000
  C   C29       1.0  0.23047  0.24684  0.29938  1.0000
  H   H37       1.0  0.24610  0.25753  0.34243  1.0000
  H   H38       1.0  0.21979  0.25567  0.30173  1.0000
  H   H39       1.0  0.23637  0.24801  0.22898  1.0000
  C   C30       1.0  0.25654  0.22078  0.30009  1.0000
  H   H40       1.0  0.26541  0.21013  0.30333  1.0000
  H   H41       1.0  0.26715  0.23648  0.34291  1.0000
  H   H42       1.0  0.25779  0.22656  0.22948  1.0000
  C   C31       1.0  0.83056  0.02836  0.35952  1.0000
  C   C32       1.0  0.80602  0.01531  0.33030  1.0000
  C   C33       1.0  0.79307  0.98944  0.33011  1.0000
  C   C34       1.0  0.80449  0.97634  0.35947  1.0000
  C   C35       1.0  0.76725  0.97634  0.29921  1.0000
  H   H43       1.0  0.75654  0.98126  0.34221  1.0000
  H   H44       1.0  0.75842  0.95682  0.30151  1.0000
  H   H45       1.0  0.76610  0.98108  0.22879  1.0000
  C   C36       1.0  0.79331  0.02846  0.30000  1.0000
  H   H46       1.0  0.80395  0.04798  0.30329  1.0000
  H   H47       1.0  0.77760  0.02337  0.34276  1.0000
  H   H48       1.0  0.78754  0.02394  0.22937  1.0000
  C   C37       1.0  0.98572  0.79492  0.35949  1.0000
  C   C38       1.0  0.99877  0.78343  0.33027  1.0000
  C   C39       1.0  0.02464  0.79635  0.33009  1.0000
  C   C40       1.0  0.03774  0.82087  0.35944  1.0000
  C   C41       1.0  0.03774  0.78362  0.29922  1.0000
  H   H49       1.0  0.03281  0.76799  0.34223  1.0000
  H   H50       1.0  0.05726  0.79431  0.30154  1.0000
  H   H51       1.0  0.03301  0.77774  0.22880  1.0000
  C   C42       1.0  0.98562  0.75756  0.29996  1.0000
  H   H52       1.0  0.96610  0.74869  0.30323  1.0000
  H   H53       1.0  0.99070  0.74694  0.34274  1.0000
  H   H54       1.0  0.99014  0.75631  0.22935  1.0000
  C   C43       1.0  0.80447  0.82102  0.35950  1.0000
  C   C44       1.0  0.79298  0.79648  0.33024  1.0000
  C   C45       1.0  0.80590  0.78352  0.33006  1.0000
  C   C46       1.0  0.83042  0.79494  0.35945  1.0000
  C   C47       1.0  0.79318  0.75770  0.29913  1.0000
  H   H55       1.0  0.77754  0.74699  0.34210  1.0000
  H   H56       1.0  0.80386  0.74887  0.30144  1.0000
  H   H57       1.0  0.78730  0.75656  0.22871  1.0000
  C   C48       1.0  0.76711  0.78376  0.29990  1.0000
  H   H58       1.0  0.75824  0.79440  0.30318  1.0000
  H   H59       1.0  0.75649  0.76805  0.34265  1.0000
  H   H60       1.0  0.76587  0.77800  0.22927  1.0000
  C   C49       1.0  0.19306  0.97617  0.35948  1.0000
  C   C50       1.0  0.21760  0.98922  0.33021  1.0000
  C   C51       1.0  0.23056  0.01508  0.33003  1.0000
  C   C52       1.0  0.21914  0.02819  0.35944  1.0000
  C   C53       1.0  0.25637  0.02818  0.29909  1.0000
  H   H61       1.0  0.26708  0.02325  0.34205  1.0000
  H   H62       1.0  0.26521  0.04770  0.30141  1.0000
  H   H63       1.0  0.25751  0.02345  0.22867  1.0000
  C   C54       1.0  0.23031  0.97606  0.29984  1.0000
  H   H64       1.0  0.21967  0.95655  0.30311  1.0000
  H   H65       1.0  0.24602  0.98114  0.34258  1.0000
  H   H66       1.0  0.23607  0.98058  0.22921  1.0000
  C   C55       1.0  0.03791  0.20960  0.35951  1.0000
  C   C56       1.0  0.02486  0.22108  0.33013  1.0000
  C   C57       1.0  0.99899  0.20817  0.32995  1.0000
  C   C58       1.0  0.98588  0.18365  0.35946  1.0000
  C   C59       1.0  0.98589  0.22088  0.29891  1.0000
  H   H67       1.0  0.99082  0.23653  0.34179  1.0000
  H   H68       1.0  0.96637  0.21019  0.30126  1.0000
  H   H69       1.0  0.99062  0.22672  0.22846  1.0000
  C   C60       1.0  0.03801  0.24694  0.29963  1.0000
  H   H70       1.0  0.05753  0.25581  0.30290  1.0000
  H   H71       1.0  0.03293  0.25758  0.34230  1.0000
  H   H72       1.0  0.03349  0.24815  0.22899  1.0000
  C   C61       1.0  0.25207  0.64466  0.36236  1.0000
  C   C62       1.0  0.25397  0.63621  0.27422  1.0000
  C   C63       1.0  0.25012  0.61238  0.26401  1.0000
  C   C64       1.0  0.25211  0.59996  0.34136  1.0000
  C   C65       1.0  0.24358  0.60069  0.17192  1.0000
  H   H73       1.0  0.23077  0.60459  0.13814  1.0000
  H   H74       1.0  0.23479  0.58114  0.17529  1.0000
  H   H75       1.0  0.25958  0.60727  0.12942  1.0000
  C   C66       1.0  0.26105  0.65216  0.19180  1.0000
  H   H76       1.0  0.27061  0.67123  0.20874  1.0000
  H   H77       1.0  0.24515  0.64817  0.15189  1.0000
  H   H78       1.0  0.27343  0.64952  0.14894  1.0000
  C   C67       1.0  0.36941  0.60009  0.36250  1.0000
  C   C68       1.0  0.37785  0.61044  0.27435  1.0000
  C   C69       1.0  0.40169  0.63042  0.26411  1.0000
  C   C70       1.0  0.41412  0.64482  0.34145  1.0000
  C   C71       1.0  0.41336  0.63557  0.17199  1.0000
  H   H79       1.0  0.40944  0.61886  0.13816  1.0000
  H   H80       1.0  0.43291  0.64631  0.17532  1.0000
  H   H81       1.0  0.40679  0.64501  0.12954  1.0000
  C   C72       1.0  0.36189  0.60159  0.19198  1.0000
  H   H82       1.0  0.34282  0.59208  0.20897  1.0000
  H   H83       1.0  0.36586  0.58967  0.15203  1.0000
  H   H84       1.0  0.36453  0.61661  0.14912  1.0000
  C   C73       1.0  0.41397  0.76202  0.36232  1.0000
  C   C74       1.0  0.40362  0.76012  0.27418  1.0000
  C   C75       1.0  0.38364  0.76397  0.26396  1.0000
  C   C76       1.0  0.36923  0.76199  0.34130  1.0000
  C   C77       1.0  0.37849  0.77051  0.17186  1.0000
  H   H85       1.0  0.39520  0.78328  0.13799  1.0000
  H   H86       1.0  0.36776  0.77933  0.17523  1.0000
  H   H87       1.0  0.36902  0.75450  0.12942  1.0000
  C   C78       1.0  0.41247  0.75302  0.19179  1.0000
  H   H88       1.0  0.42193  0.74340  0.20878  1.0000
  H   H89       1.0  0.42443  0.76892  0.15197  1.0000
  H   H90       1.0  0.39746  0.74069  0.14880  1.0000
  C   C79       1.0  0.77161  0.35987  0.36241  1.0000
  C   C80       1.0  0.76970  0.36831  0.27427  1.0000
  C   C81       1.0  0.77356  0.39215  0.26405  1.0000
  C   C82       1.0  0.77158  0.40457  0.34138  1.0000
  C   C83       1.0  0.78009  0.40382  0.17194  1.0000
  H   H91       1.0  0.79288  0.39990  0.13812  1.0000
  H   H92       1.0  0.78890  0.42338  0.17529  1.0000
  H   H93       1.0  0.76408  0.39726  0.12947  1.0000
  C   C84       1.0  0.76260  0.35235  0.19188  1.0000
  H   H94       1.0  0.75301  0.33328  0.20887  1.0000
  H   H95       1.0  0.77849  0.35631  0.15201  1.0000
  H   H96       1.0  0.75024  0.35501  0.14896  1.0000
  C   C85       1.0  0.65418  0.40443  0.36230  1.0000
  C   C86       1.0  0.64572  0.39408  0.27417  1.0000
  C   C87       1.0  0.62188  0.37410  0.26400  1.0000
  C   C88       1.0  0.60947  0.35969  0.34136  1.0000
  C   C89       1.0  0.61017  0.36896  0.17195  1.0000
  H   H97       1.0  0.61408  0.38567  0.13819  1.0000
  H   H98       1.0  0.59062  0.35820  0.17536  1.0000
  H   H99       1.0  0.61673  0.35953  0.12939  1.0000
  C   C90       1.0  0.66165  0.40293  0.19172  1.0000
  H   H100      1.0  0.68073  0.41240  0.20863  1.0000
  H   H101      1.0  0.65769  0.41488  0.15192  1.0000
  H   H102      1.0  0.65897  0.38792  0.14875  1.0000
  C   C91       1.0  0.60962  0.24242  0.36230  1.0000
  C   C92       1.0  0.61998  0.24432  0.27417  1.0000
  C   C93       1.0  0.63996  0.24046  0.26399  1.0000
  C   C94       1.0  0.65436  0.24245  0.34135  1.0000
  C   C95       1.0  0.64511  0.23391  0.17192  1.0000
  H   H103      1.0  0.62840  0.22111  0.13813  1.0000
  H   H104      1.0  0.65587  0.22512  0.17532  1.0000
  H   H105      1.0  0.65454  0.24991  0.12939  1.0000
  C   C96       1.0  0.61114  0.25142  0.19175  1.0000
  H   H106      1.0  0.60166  0.26102  0.20869  1.0000
  H   H107      1.0  0.59919  0.23552  0.15189  1.0000
  H   H108      1.0  0.62615  0.26376  0.14881  1.0000
  N   N1        1.0  0.14199  0.26244  0.35282  1.0000
  C   C97       1.0  0.11605  0.24859  0.35536  1.0000
  C   C98       1.0  0.15518  0.28874  0.35440  1.0000
  C   C99       1.0  0.15411  0.24861  0.35521  1.0000
  C   C100      1.0  0.15666  0.23753  0.27600  1.0000
  C   C101      1.0  0.16921  0.22463  0.27756  1.0000
  C   C102      1.0  0.18009  0.22256  0.35836  1.0000
  C   C103      1.0  0.17772  0.23381  0.43757  1.0000
  C   C104      1.0  0.16494  0.24650  0.43600  1.0000
  C   C105      1.0  0.10311  0.24587  0.43672  1.0000
  C   C106      1.0  0.07764  0.23326  0.43821  1.0000
  C   C107      1.0  0.06401  0.22252  0.35847  1.0000
  C   C108      1.0  0.07698  0.22508  0.27722  1.0000
  C   C109      1.0  0.10242  0.23801  0.27566  1.0000
  C   C110      1.0  0.14345  0.30249  0.36162  1.0000
  C   C111      1.0  0.15618  0.32793  0.36235  1.0000
  C   C112      1.0  0.18153  0.34124  0.35440  1.0000
  C   C113      1.0  0.19347  0.32784  0.34597  1.0000
  C   C114      1.0  0.18064  0.30238  0.34614  1.0000
  H   H109      1.0  0.06902  0.23193  0.49840  1.0000
  H   H110      1.0  0.11232  0.25349  0.49556  1.0000
  H   H111      1.0  0.11105  0.23993  0.21509  1.0000
  H   H112      1.0  0.06788  0.21777  0.21784  1.0000
  H   H113      1.0  0.14958  0.23907  0.21574  1.0000
  H   H114      1.0  0.17065  0.21697  0.21853  1.0000
  H   H115      1.0  0.12515  0.29403  0.36654  1.0000
  H   H116      1.0  0.14670  0.33680  0.36816  1.0000
  H   H117      1.0  0.21179  0.33663  0.33933  1.0000
  H   H118      1.0  0.19034  0.29382  0.33909  1.0000
  H   H119      1.0  0.16373  0.25450  0.49444  1.0000
  H   H120      1.0  0.18537  0.23285  0.49740  1.0000
  N   N2        1.0  0.75163  0.87226  0.35282  1.0000
  C   C115      1.0  0.76548  0.86016  0.35535  1.0000
  C   C116      1.0  0.72533  0.85914  0.35440  1.0000
  C   C117      1.0  0.76545  0.89820  0.35523  1.0000
  C   C118      1.0  0.77657  0.91183  0.27604  1.0000
  C   C119      1.0  0.78947  0.93728  0.27762  1.0000
  C   C120      1.0  0.79151  0.95023  0.35837  1.0000
  C   C121      1.0  0.78022  0.93660  0.43754  1.0000
  C   C122      1.0  0.76754  0.91114  0.43598  1.0000
  C   C123      1.0  0.76823  0.84997  0.43675  1.0000
  C   C124      1.0  0.78085  0.83713  0.43824  1.0000
  C   C125      1.0  0.79155  0.83420  0.35846  1.0000
  C   C126      1.0  0.78895  0.84457  0.27718  1.0000
  C   C127      1.0  0.77602  0.85707  0.27561  1.0000
  C   C128      1.0  0.71158  0.83366  0.36184  1.0000
  C   C129      1.0  0.68614  0.82095  0.36257  1.0000
  C   C130      1.0  0.67282  0.83298  0.35440  1.0000
  C   C131      1.0  0.68623  0.85832  0.34577  1.0000
  C   C132      1.0  0.71168  0.87094  0.34593  1.0000
  H   H121      1.0  0.78220  0.82986  0.49845  1.0000
  H   H122      1.0  0.76064  0.85159  0.49562  1.0000
  H   H123      1.0  0.77407  0.86376  0.21503  1.0000
  H   H124      1.0  0.79624  0.84275  0.21777  1.0000
  H   H125      1.0  0.77506  0.90320  0.21581  1.0000
  H   H126      1.0  0.79716  0.94638  0.21861  1.0000
  H   H127      1.0  0.72004  0.82382  0.36692  1.0000
  H   H128      1.0  0.67727  0.80261  0.36855  1.0000
  H   H129      1.0  0.67743  0.86784  0.33897  1.0000
  H   H130      1.0  0.72024  0.88921  0.33872  1.0000
  H   H131      1.0  0.75950  0.90193  0.49439  1.0000
  H   H132      1.0  0.78116  0.94523  0.49734  1.0000
  N   N3        1.0  0.14182  0.87209  0.35280  1.0000
  C   C133      1.0  0.15392  0.89803  0.35533  1.0000
  C   C134      1.0  0.15494  0.85891  0.35434  1.0000
  C   C135      1.0  0.11587  0.85996  0.35519  1.0000
  C   C136      1.0  0.10224  0.85744  0.27600  1.0000
  C   C137      1.0  0.07680  0.84490  0.27757  1.0000
  C   C138      1.0  0.06384  0.83400  0.35835  1.0000
  C   C139      1.0  0.07747  0.83634  0.43753  1.0000
  C   C140      1.0  0.10293  0.84912  0.43596  1.0000
  C   C141      1.0  0.16411  0.91097  0.43672  1.0000
  C   C142      1.0  0.17695  0.93643  0.43822  1.0000
  C   C143      1.0  0.17988  0.95006  0.35845  1.0000
  C   C144      1.0  0.16950  0.93710  0.27717  1.0000
  C   C145      1.0  0.15699  0.91166  0.27560  1.0000
  C   C146      1.0  0.18041  0.87063  0.36174  1.0000
  C   C147      1.0  0.19313  0.85790  0.36248  1.0000
  C   C148      1.0  0.18109  0.83255  0.35437  1.0000
  C   C149      1.0  0.15575  0.82062  0.34580  1.0000
  C   C150      1.0  0.14313  0.83345  0.34596  1.0000
  H   H133      1.0  0.18423  0.94505  0.49842  1.0000
  H   H134      1.0  0.16250  0.90176  0.49558  1.0000
  H   H135      1.0  0.15030  0.90302  0.21503  1.0000
  H   H136      1.0  0.17131  0.94620  0.21776  1.0000
  H   H137      1.0  0.11087  0.86456  0.21578  1.0000
  H   H138      1.0  0.06769  0.84349  0.21857  1.0000
  H   H139      1.0  0.19025  0.88893  0.36679  1.0000
  H   H140      1.0  0.21147  0.86738  0.36841  1.0000
  H   H141      1.0  0.14623  0.80230  0.33906  1.0000
  H   H142      1.0  0.12486  0.82374  0.33880  1.0000
  H   H143      1.0  0.11214  0.85030  0.49438  1.0000
  H   H144      1.0  0.06885  0.82867  0.49733  1.0000
  N   N4        1.0  0.88164  0.74208  0.35281  1.0000
  C   C151      1.0  0.90758  0.75592  0.35533  1.0000
  C   C152      1.0  0.86845  0.71578  0.35436  1.0000
  C   C153      1.0  0.86951  0.75590  0.35520  1.0000
  C   C154      1.0  0.86700  0.76702  0.27602  1.0000
  C   C155      1.0  0.85446  0.77992  0.27760  1.0000
  C   C156      1.0  0.84354  0.78196  0.35835  1.0000
  C   C157      1.0  0.84587  0.77066  0.43752  1.0000
  C   C158      1.0  0.85865  0.75798  0.43595  1.0000
  C   C159      1.0  0.92052  0.75869  0.43674  1.0000
  C   C160      1.0  0.94598  0.77131  0.43823  1.0000
  C   C161      1.0  0.95961  0.78200  0.35845  1.0000
  C   C162      1.0  0.94665  0.77940  0.27716  1.0000
  C   C163      1.0  0.92121  0.76647  0.27559  1.0000
  C   C164      1.0  0.88018  0.70203  0.36185  1.0000
  C   C165      1.0  0.86745  0.67658  0.36259  1.0000
  C   C166      1.0  0.84210  0.66327  0.35438  1.0000
  C   C167      1.0  0.83017  0.67668  0.34571  1.0000
  C   C168      1.0  0.84300  0.70213  0.34589  1.0000
  H   H145      1.0  0.95460  0.77266  0.49844  1.0000
  H   H146      1.0  0.91131  0.75109  0.49560  1.0000
  H   H147      1.0  0.91257  0.76451  0.21501  1.0000
  H   H148      1.0  0.95575  0.78668  0.21774  1.0000
  H   H149      1.0  0.87413  0.76553  0.21580  1.0000
  H   H150      1.0  0.85307  0.78763  0.21860  1.0000
  H   H151      1.0  0.89848  0.71049  0.36696  1.0000
  H   H152      1.0  0.87693  0.66772  0.36859  1.0000
  H   H153      1.0  0.81185  0.66788  0.33889  1.0000
  H   H154      1.0  0.83330  0.71069  0.33863  1.0000
  H   H155      1.0  0.85983  0.74994  0.49435  1.0000
  H   H156      1.0  0.83819  0.77160  0.49731  1.0000
  N   N5        1.0  0.27201  0.13227  0.35280  1.0000
  C   C169      1.0  0.25817  0.14437  0.35533  1.0000
  C   C170      1.0  0.29831  0.14539  0.35438  1.0000
  C   C171      1.0  0.25819  0.10632  0.35519  1.0000
  C   C172      1.0  0.24706  0.09269  0.27602  1.0000
  C   C173      1.0  0.23416  0.06725  0.27759  1.0000
  C   C174      1.0  0.23212  0.05429  0.35834  1.0000
  C   C175      1.0  0.24342  0.06792  0.43751  1.0000
  C   C176      1.0  0.25611  0.09338  0.43594  1.0000
  C   C177      1.0  0.25539  0.15453  0.43675  1.0000
  C   C178      1.0  0.24278  0.16738  0.43824  1.0000
  C   C179      1.0  0.23209  0.17033  0.35845  1.0000
  C   C180      1.0  0.23469  0.15997  0.27716  1.0000
  C   C181      1.0  0.24763  0.14746  0.27559  1.0000
  C   C182      1.0  0.31206  0.17086  0.36192  1.0000
  C   C183      1.0  0.33751  0.18357  0.36264  1.0000
  C   C184      1.0  0.35082  0.17154  0.35439  1.0000
  C   C185      1.0  0.33741  0.14620  0.34567  1.0000
  C   C186      1.0  0.31196  0.13358  0.34584  1.0000
  H   H157      1.0  0.24142  0.17465  0.49846  1.0000
  H   H158      1.0  0.26299  0.15292  0.49561  1.0000
  H   H159      1.0  0.24959  0.14079  0.21500  1.0000
  H   H160      1.0  0.22742  0.16179  0.21774  1.0000
  H   H161      1.0  0.24856  0.10132  0.21580  1.0000
  H   H162      1.0  0.22645  0.05815  0.21859  1.0000
  H   H163      1.0  0.30360  0.18070  0.36708  1.0000
  H   H164      1.0  0.34637  0.20191  0.36870  1.0000
  H   H165      1.0  0.34620  0.13668  0.33879  1.0000
  H   H166      1.0  0.30339  0.11532  0.33853  1.0000
  H   H167      1.0  0.26415  0.10260  0.49434  1.0000
  H   H168      1.0  0.24249  0.05930  0.49730  1.0000
  N   N6        1.0  0.88180  0.13244  0.35283  1.0000
  C   C187      1.0  0.86971  0.10650  0.35535  1.0000
  C   C188      1.0  0.86869  0.14562  0.35440  1.0000
  C   C189      1.0  0.90775  0.14457  0.35522  1.0000
  C   C190      1.0  0.92138  0.14705  0.27606  1.0000
  C   C191      1.0  0.94682  0.15960  0.27764  1.0000
  C   C192      1.0  0.95978  0.17053  0.35837  1.0000
  C   C193      1.0  0.94615  0.16822  0.43752  1.0000
  C   C194      1.0  0.92069  0.15544  0.43596  1.0000
  C   C195      1.0  0.85955  0.09356  0.43677  1.0000
  C   C196      1.0  0.84670  0.06810  0.43826  1.0000
  C   C197      1.0  0.84375  0.05446  0.35848  1.0000
  C   C198      1.0  0.85411  0.06743  0.27717  1.0000
  C   C199      1.0  0.86661  0.09287  0.27561  1.0000
  C   C200      1.0  0.84321  0.13390  0.36198  1.0000
  C   C201      1.0  0.83050  0.14663  0.36270  1.0000
  C   C202      1.0  0.84253  0.17197  0.35440  1.0000
  C   C203      1.0  0.86786  0.18390  0.34565  1.0000
  C   C204      1.0  0.88049  0.17107  0.34582  1.0000
  H   H169      1.0  0.83944  0.05947  0.49849  1.0000
  H   H170      1.0  0.86116  0.10277  0.49564  1.0000
  H   H171      1.0  0.87327  0.10150  0.21501  1.0000
  H   H172      1.0  0.85227  0.05833  0.21776  1.0000
  H   H173      1.0  0.91275  0.13991  0.21586  1.0000
  H   H174      1.0  0.95593  0.16098  0.21866  1.0000
  H   H175      1.0  0.83338  0.11560  0.36716  1.0000
  H   H176      1.0  0.81216  0.13715  0.36879  1.0000
  H   H177      1.0  0.87738  0.20222  0.33876  1.0000
  H   H178      1.0  0.89875  0.18077  0.33849  1.0000
  H   H179      1.0  0.91148  0.15428  0.49434  1.0000
  H   H180      1.0  0.95478  0.17592  0.49730  1.0000
  N   N7        1.0  0.27272  0.52381  0.35205  1.0000
  C   C205      1.0  0.29786  0.53798  0.37572  1.0000
  C   C206      1.0  0.25979  0.49789  0.35246  1.0000
  C   C207      1.0  0.26163  0.53788  0.32849  1.0000
  C   C208      1.0  0.27336  0.55714  0.26586  1.0000
  C   C209      1.0  0.27022  0.57732  0.27024  1.0000
  C   C210      1.0  0.25333  0.57812  0.33019  1.0000
  C   C211      1.0  0.23901  0.55717  0.38264  1.0000
  C   C212      1.0  0.24372  0.53793  0.38449  1.0000
  C   C213      1.0  0.31580  0.53802  0.31968  1.0000
  C   C214      1.0  0.33976  0.55725  0.32157  1.0000
  C   C215      1.0  0.34635  0.57824  0.37373  1.0000
  C   C216      1.0  0.32865  0.57747  0.43351  1.0000
  C   C217      1.0  0.30535  0.55723  0.43833  1.0000
  C   C218      1.0  0.26227  0.48449  0.28105  1.0000
  C   C219      1.0  0.24998  0.45905  0.28230  1.0000
  C   C220      1.0  0.23374  0.44568  0.35315  1.0000
  C   C221      1.0  0.23089  0.45915  0.42365  1.0000
  C   C222      1.0  0.24399  0.48459  0.42424  1.0000
  H   H181      1.0  0.35186  0.55687  0.27721  1.0000
  H   H182      1.0  0.31123  0.52497  0.27155  1.0000
  H   H183      1.0  0.29279  0.55855  0.47692  1.0000
  H   H184      1.0  0.33216  0.59231  0.47099  1.0000
  H   H185      1.0  0.28716  0.55837  0.22695  1.0000
  H   H186      1.0  0.28150  0.59214  0.23253  1.0000
  H   H187      1.0  0.27310  0.49325  0.22680  1.0000
  H   H188      1.0  0.25266  0.45022  0.22958  1.0000
  H   H189      1.0  0.21944  0.45040  0.47660  1.0000
  H   H190      1.0  0.24194  0.49344  0.47826  1.0000
  H   H191      1.0  0.23534  0.52495  0.43290  1.0000
  H   H192      1.0  0.22654  0.55678  0.42708  1.0000
  N   N8        1.0  0.49026  0.74156  0.35224  1.0000
  C   C223      1.0  0.47610  0.75256  0.37558  1.0000
  C   C224      1.0  0.51618  0.75456  0.35256  1.0000
  C   C225      1.0  0.47621  0.71640  0.32858  1.0000
  C   C226      1.0  0.45700  0.70888  0.26574  1.0000
  C   C227      1.0  0.43678  0.68557  0.27034  1.0000
  C   C228      1.0  0.43598  0.66787  0.33026  1.0000
  C   C229      1.0  0.45693  0.67447  0.38261  1.0000
  C   C230      1.0  0.47613  0.69845  0.38469  1.0000
  C   C231      1.0  0.47605  0.77046  0.31959  1.0000
  C   C232      1.0  0.45679  0.77517  0.32134  1.0000
  C   C233      1.0  0.43581  0.76080  0.37354  1.0000
  C   C234      1.0  0.43657  0.74387  0.43338  1.0000
  C   C235      1.0  0.45676  0.74073  0.43780  1.0000
  C   C236      1.0  0.52957  0.77042  0.28110  1.0000
  C   C237      1.0  0.55501  0.78358  0.28231  1.0000
  C   C238      1.0  0.56839  0.78073  0.35319  1.0000
  C   C239      1.0  0.55493  0.76442  0.42375  1.0000
  C   C240      1.0  0.52948  0.75208  0.42435  1.0000
  H   H193      1.0  0.45721  0.78769  0.27709  1.0000
  H   H194      1.0  0.48912  0.77897  0.27159  1.0000
  H   H195      1.0  0.45549  0.72693  0.47680  1.0000
  H   H196      1.0  0.42173  0.73254  0.47085  1.0000
  H   H197      1.0  0.45569  0.72143  0.22704  1.0000
  H   H198      1.0  0.42195  0.68205  0.23272  1.0000
  H   H199      1.0  0.52080  0.77248  0.22685  1.0000
  H   H200      1.0  0.56384  0.79508  0.22956  1.0000
  H   H201      1.0  0.56369  0.76174  0.47671  1.0000
  H   H202      1.0  0.52065  0.74119  0.47840  1.0000
  H   H203      1.0  0.48914  0.70304  0.43298  1.0000
  H   H204      1.0  0.45731  0.66241  0.42715  1.0000
  N   N9        1.0  0.27250  0.74140  0.35229  1.0000
  C   C241      1.0  0.26151  0.71624  0.37563  1.0000
  C   C242      1.0  0.25950  0.75432  0.35258  1.0000
  C   C243      1.0  0.29764  0.75248  0.32848  1.0000
  C   C244      1.0  0.30517  0.74080  0.26561  1.0000
  C   C245      1.0  0.32849  0.74390  0.27017  1.0000
  C   C246      1.0  0.34618  0.76079  0.33012  1.0000
  C   C247      1.0  0.33957  0.77513  0.38253  1.0000
  C   C248      1.0  0.31559  0.77036  0.38460  1.0000
  C   C249      1.0  0.24361  0.69828  0.31963  1.0000
  C   C250      1.0  0.23887  0.67431  0.32153  1.0000
  C   C251      1.0  0.25329  0.66773  0.37356  1.0000
  C   C252      1.0  0.27023  0.68543  0.43334  1.0000
  C   C253      1.0  0.27334  0.70874  0.43787  1.0000
  C   C254      1.0  0.24363  0.75184  0.28114  1.0000
  C   C255      1.0  0.23047  0.76411  0.28234  1.0000
  C   C256      1.0  0.23333  0.78036  0.35317  1.0000
  C   C257      1.0  0.24965  0.78322  0.42371  1.0000
  C   C258      1.0  0.26199  0.77012  0.42434  1.0000
  H   H205      1.0  0.22641  0.66223  0.27707  1.0000
  H   H206      1.0  0.23511  0.70284  0.27158  1.0000
  H   H207      1.0  0.28712  0.72127  0.47691  1.0000
  H   H208      1.0  0.28154  0.68191  0.47091  1.0000
  H   H209      1.0  0.29262  0.72694  0.22694  1.0000
  H   H210      1.0  0.33201  0.73260  0.23257  1.0000
  H   H211      1.0  0.24157  0.74100  0.22690  1.0000
  H   H212      1.0  0.21897  0.76144  0.22958  1.0000
  H   H213      1.0  0.25234  0.79467  0.47664  1.0000
  H   H214      1.0  0.27288  0.77217  0.47838  1.0000
  H   H215      1.0  0.31101  0.77878  0.43289  1.0000
  H   H216      1.0  0.35166  0.78758  0.42700  1.0000
  N   N10       1.0  0.75094  0.48071  0.35220  1.0000
  C   C259      1.0  0.72578  0.46655  0.37557  1.0000
  C   C260      1.0  0.76387  0.50663  0.35253  1.0000
  C   C261      1.0  0.76204  0.46665  0.32858  1.0000
  C   C262      1.0  0.75031  0.44739  0.26600  1.0000
  C   C263      1.0  0.75348  0.42721  0.27022  1.0000
  C   C264      1.0  0.77036  0.42642  0.33020  1.0000
  C   C265      1.0  0.78469  0.44737  0.38265  1.0000
  C   C266      1.0  0.77993  0.46659  0.38462  1.0000
  C   C267      1.0  0.70783  0.46650  0.31955  1.0000
  C   C268      1.0  0.68387  0.44725  0.32130  1.0000
  C   C269      1.0  0.67726  0.42626  0.37347  1.0000
  C   C270      1.0  0.69495  0.42702  0.43326  1.0000
  C   C271      1.0  0.71827  0.44722  0.43780  1.0000
  C   C272      1.0  0.76140  0.52002  0.28107  1.0000
  C   C273      1.0  0.77368  0.54546  0.28229  1.0000
  C   C274      1.0  0.78991  0.55883  0.35316  1.0000
  C   C275      1.0  0.79275  0.54537  0.42371  1.0000
  C   C276      1.0  0.77965  0.51993  0.42432  1.0000
  H   H217      1.0  0.67177  0.44767  0.27707  1.0000
  H   H218      1.0  0.71239  0.47958  0.27156  1.0000
  H   H219      1.0  0.73080  0.44596  0.47685  1.0000
  H   H220      1.0  0.69142  0.41219  0.47087  1.0000
  H   H221      1.0  0.73653  0.44613  0.22692  1.0000
  H   H222      1.0  0.74219  0.41240  0.23254  1.0000
  H   H223      1.0  0.75057  0.51125  0.22681  1.0000
  H   H224      1.0  0.77101  0.55429  0.22952  1.0000
  H   H225      1.0  0.80420  0.55413  0.47668  1.0000
  H   H226      1.0  0.78170  0.51109  0.47836  1.0000
  H   H227      1.0  0.78834  0.47957  0.43301  1.0000
  H   H228      1.0  0.79713  0.44773  0.42714  1.0000
  N   N11       1.0  0.53338  0.26293  0.35222  1.0000
  C   C277      1.0  0.54754  0.25191  0.37553  1.0000
  C   C278      1.0  0.50746  0.24993  0.35254  1.0000
  C   C279      1.0  0.54744  0.28809  0.32865  1.0000
  C   C280      1.0  0.56667  0.29560  0.26593  1.0000
  C   C281      1.0  0.58684  0.31894  0.27025  1.0000
  C   C282      1.0  0.58763  0.33662  0.33020  1.0000
  C   C283      1.0  0.56669  0.32999  0.38271  1.0000
  C   C284      1.0  0.54747  0.30602  0.38474  1.0000
  C   C285      1.0  0.54755  0.23401  0.31948  1.0000
  C   C286      1.0  0.56680  0.22929  0.32126  1.0000
  C   C287      1.0  0.58779  0.24366  0.37348  1.0000
  C   C288      1.0  0.58704  0.26059  0.43331  1.0000
  C   C289      1.0  0.56685  0.26373  0.43786  1.0000
  C   C290      1.0  0.49406  0.23410  0.28101  1.0000
  C   C291      1.0  0.46863  0.22093  0.28225  1.0000
  C   C292      1.0  0.45525  0.22377  0.35318  1.0000
  C   C293      1.0  0.46872  0.24005  0.42379  1.0000
  C   C294      1.0  0.49416  0.25239  0.42441  1.0000
  H   H229      1.0  0.56638  0.21677  0.27701  1.0000
  H   H230      1.0  0.53448  0.22551  0.27146  1.0000
  H   H231      1.0  0.56810  0.27751  0.47692  1.0000
  H   H232      1.0  0.60186  0.27188  0.47096  1.0000
  H   H233      1.0  0.56791  0.28308  0.22681  1.0000
  H   H234      1.0  0.60164  0.32250  0.23238  1.0000
  H   H235      1.0  0.50284  0.23206  0.22670  1.0000
  H   H236      1.0  0.45980  0.20947  0.22941  1.0000
  H   H237      1.0  0.45995  0.24271  0.47681  1.0000
  H   H238      1.0  0.50300  0.26325  0.47850  1.0000
  H   H239      1.0  0.53450  0.30142  0.43319  1.0000
  H   H240      1.0  0.56631  0.34206  0.42728  1.0000
  N   N12       1.0  0.75113  0.26314  0.35219  1.0000
  C   C295      1.0  0.76211  0.28829  0.37575  1.0000
  C   C296      1.0  0.76412  0.25021  0.35254  1.0000
  C   C297      1.0  0.72597  0.25207  0.32856  1.0000
  C   C298      1.0  0.71846  0.26379  0.26588  1.0000
  C   C299      1.0  0.69511  0.26061  0.27025  1.0000
  C   C300      1.0  0.67744  0.24370  0.33019  1.0000
  C   C301      1.0  0.68406  0.22936  0.38253  1.0000
  C   C302      1.0  0.70805  0.23416  0.38461  1.0000
  C   C303      1.0  0.78002  0.30622  0.31967  1.0000
  C   C304      1.0  0.78476  0.33019  0.32150  1.0000
  C   C305      1.0  0.77039  0.33680  0.37365  1.0000
  C   C306      1.0  0.75346  0.31912  0.43353  1.0000
  C   C307      1.0  0.75035  0.29580  0.43821  1.0000
  C   C308      1.0  0.77996  0.25265  0.28101  1.0000
  C   C309      1.0  0.79312  0.24037  0.28225  1.0000
  C   C310      1.0  0.79029  0.22417  0.35319  1.0000
  C   C311      1.0  0.77400  0.22135  0.42380  1.0000
  C   C312      1.0  0.76167  0.23445  0.42441  1.0000
  H   H241      1.0  0.79724  0.34225  0.27703  1.0000
  H   H242      1.0  0.78847  0.30162  0.27153  1.0000
  H   H243      1.0  0.73654  0.28324  0.47708  1.0000
  H   H244      1.0  0.74216  0.32266  0.47113  1.0000
  H   H245      1.0  0.73098  0.27757  0.22681  1.0000
  H   H246      1.0  0.69155  0.27186  0.23244  1.0000
  H   H247      1.0  0.78200  0.26346  0.22670  1.0000
  H   H248      1.0  0.80459  0.24301  0.22942  1.0000
  H   H249      1.0  0.77134  0.20993  0.47683  1.0000
  H   H250      1.0  0.75080  0.23243  0.47851  1.0000
  H   H251      1.0  0.71265  0.22577  0.43300  1.0000
  H   H252      1.0  0.67201  0.21693  0.42716  1.0000
  C   C313      1.0  0.22065  0.41948  0.35346  1.0000
  C   C314      1.0  0.22415  0.40633  0.42487  1.0000
  C   C315      1.0  0.20965  0.38058  0.42911  1.0000
  C   C316      1.0  0.19463  0.36738  0.35404  1.0000
  C   C317      1.0  0.21034  0.36776  0.51378  1.0000
  H   H253      1.0  0.20793  0.37631  0.57391  1.0000
  H   H254      1.0  0.22757  0.36833  0.51859  1.0000
  H   H255      1.0  0.19628  0.34897  0.51773  1.0000
  C   C318      1.0  0.24327  0.41914  0.49589  1.0000
  H   H256      1.0  0.25619  0.43777  0.47958  1.0000
  H   H257      1.0  0.25395  0.41036  0.50412  1.0000
  H   H258      1.0  0.23497  0.41895  0.56095  1.0000
  C   C319      1.0  0.59459  0.79386  0.35348  1.0000
  C   C320      1.0  0.60774  0.81053  0.42480  1.0000
  C   C321      1.0  0.63348  0.82179  0.42905  1.0000
  C   C322      1.0  0.64669  0.81994  0.35406  1.0000
  C   C323      1.0  0.64631  0.83534  0.51364  1.0000
  H   H259      1.0  0.63776  0.82441  0.57384  1.0000
  H   H260      1.0  0.64572  0.85200  0.51831  1.0000
  H   H261      1.0  0.66510  0.84009  0.51762  1.0000
  C   C324      1.0  0.59492  0.81686  0.49573  1.0000
  H   H262      1.0  0.57629  0.81114  0.47941  1.0000
  H   H263      1.0  0.60369  0.83633  0.50380  1.0000
  H   H264      1.0  0.59513  0.80880  0.56086  1.0000
  C   C325      1.0  0.22021  0.79344  0.35346  1.0000
  C   C326      1.0  0.20354  0.78992  0.42481  1.0000
  C   C327      1.0  0.19229  0.80442  0.42905  1.0000
  C   C328      1.0  0.19413  0.81945  0.35402  1.0000
  C   C329      1.0  0.17875  0.80370  0.51367  1.0000
  H   H265      1.0  0.18970  0.80610  0.57384  1.0000
  H   H266      1.0  0.16210  0.78646  0.51840  1.0000
  H   H267      1.0  0.17401  0.81775  0.51763  1.0000
  C   C330      1.0  0.19722  0.77079  0.49578  1.0000
  H   H268      1.0  0.20294  0.75788  0.47947  1.0000
  H   H269      1.0  0.17776  0.76009  0.50390  1.0000
  H   H270      1.0  0.20530  0.77907  0.56088  1.0000
  C   C331      1.0  0.80299  0.58504  0.35346  1.0000
  C   C332      1.0  0.79946  0.59819  0.42477  1.0000
  C   C333      1.0  0.81395  0.62393  0.42902  1.0000
  C   C334      1.0  0.82901  0.63714  0.35404  1.0000
  C   C335      1.0  0.81321  0.63676  0.51360  1.0000
  H   H271      1.0  0.81560  0.62821  0.57380  1.0000
  H   H272      1.0  0.79597  0.63617  0.51825  1.0000
  H   H273      1.0  0.82726  0.65555  0.51758  1.0000
  C   C336      1.0  0.78031  0.58537  0.49569  1.0000
  H   H274      1.0  0.76740  0.56674  0.47937  1.0000
  H   H275      1.0  0.76961  0.59414  0.50375  1.0000
  H   H276      1.0  0.78858  0.58558  0.56082  1.0000
  C   C337      1.0  0.42905  0.21065  0.35347  1.0000
  C   C338      1.0  0.41590  0.19395  0.42473  1.0000
  C   C339      1.0  0.39015  0.18270  0.42898  1.0000
  C   C340      1.0  0.37695  0.18457  0.35404  1.0000
  C   C341      1.0  0.37733  0.16912  0.51354  1.0000
  H   H277      1.0  0.38588  0.18004  0.57377  1.0000
  H   H278      1.0  0.37791  0.15246  0.51811  1.0000
  H   H279      1.0  0.35854  0.16438  0.51755  1.0000
  C   C342      1.0  0.42871  0.18760  0.49558  1.0000
  H   H280      1.0  0.44734  0.19332  0.47923  1.0000
  H   H281      1.0  0.41994  0.16813  0.50358  1.0000
  H   H282      1.0  0.42851  0.19564  0.56075  1.0000
  C   C343      1.0  0.80341  0.21108  0.35349  1.0000
  C   C344      1.0  0.82011  0.21463  0.42474  1.0000
  C   C345      1.0  0.83137  0.20015  0.42900  1.0000
  C   C346      1.0  0.82949  0.18507  0.35406  1.0000
  C   C347      1.0  0.84495  0.20091  0.51355  1.0000
  H   H283      1.0  0.83404  0.19854  0.57378  1.0000
  H   H284      1.0  0.86161  0.21815  0.51809  1.0000
  H   H285      1.0  0.84969  0.18686  0.51755  1.0000
  C   C348      1.0  0.82647  0.23381  0.49558  1.0000
  H   H286      1.0  0.82074  0.24671  0.47924  1.0000
  H   H287      1.0  0.84594  0.24451  0.50355  1.0000
  H   H288      1.0  0.81843  0.22556  0.56077  1.0000
  C   C349      1.0  0.18174  0.18506  0.38886  1.0000
  C   C350      1.0  0.19463  0.17208  0.38875  1.0000
  C   C351      1.0  0.15590  0.17237  0.41944  1.0000
  H   H289      1.0  0.14712  0.18311  0.41732  1.0000
  H   H290      1.0  0.15467  0.16640  0.48977  1.0000
  H   H291      1.0  0.14519  0.15680  0.37616  1.0000
  C   C352      1.0  0.18184  0.14620  0.41889  1.0000
  H   H292      1.0  0.19246  0.13730  0.41599  1.0000
  H   H293      1.0  0.16618  0.13562  0.37581  1.0000
  H   H294      1.0  0.17597  0.14493  0.48939  1.0000
  C   C353      1.0  0.82900  0.98938  0.38895  1.0000
  C   C354      1.0  0.84198  0.01525  0.38882  1.0000
  C   C355      1.0  0.84168  0.97622  0.41965  1.0000
  H   H295      1.0  0.83093  0.95670  0.41757  1.0000
  H   H296      1.0  0.84764  0.98097  0.48997  1.0000
  H   H297      1.0  0.85726  0.98108  0.37641  1.0000
  C   C356      1.0  0.86786  0.02833  0.41902  1.0000
  H   H298      1.0  0.87676  0.04785  0.41607  1.0000
  H   H299      1.0  0.87844  0.02325  0.37600  1.0000
  H   H300      1.0  0.86912  0.02375  0.48954  1.0000
  C   C357      1.0  0.02469  0.83234  0.38891  1.0000
  C   C358      1.0  0.99883  0.81945  0.38879  1.0000
  C   C359      1.0  0.03785  0.85818  0.41958  1.0000
  H   H301      1.0  0.05737  0.86695  0.41748  1.0000
  H   H302      1.0  0.03311  0.85939  0.48991  1.0000
  H   H303      1.0  0.03299  0.86890  0.37634  1.0000
  C   C360      1.0  0.98574  0.83224  0.41899  1.0000
  H   H304      1.0  0.96622  0.82163  0.41606  1.0000
  H   H305      1.0  0.99082  0.84791  0.37595  1.0000
  H   H306      1.0  0.99033  0.83809  0.48950  1.0000
  C   C361      1.0  0.84189  0.81945  0.38896  1.0000
  C   C362      1.0  0.82900  0.83243  0.38884  1.0000
  C   C363      1.0  0.86772  0.83212  0.41969  1.0000
  H   H307      1.0  0.87649  0.82138  0.41759  1.0000
  H   H308      1.0  0.86892  0.83807  0.49002  1.0000
  H   H309      1.0  0.87844  0.84771  0.37648  1.0000
  C   C364      1.0  0.84179  0.85830  0.41908  1.0000
  H   H310      1.0  0.83117  0.86721  0.41615  1.0000
  H   H311      1.0  0.85745  0.86889  0.37608  1.0000
  H   H312      1.0  0.84763  0.85955  0.48960  1.0000
  C   C365      1.0  0.19463  0.01515  0.38897  1.0000
  C   C366      1.0  0.18165  0.98928  0.38884  1.0000
  C   C367      1.0  0.18196  0.02831  0.41970  1.0000
  H   H313      1.0  0.19270  0.04783  0.41760  1.0000
  H   H314      1.0  0.17601  0.02356  0.49004  1.0000
  H   H315      1.0  0.16637  0.02345  0.37650  1.0000
  C   C368      1.0  0.15578  0.97620  0.41910  1.0000
  H   H316      1.0  0.14687  0.95668  0.41617  1.0000
  H   H317      1.0  0.14519  0.98128  0.37611  1.0000
  H   H318      1.0  0.15453  0.98079  0.48963  1.0000
  C   C369      1.0  0.99893  0.17220  0.38910  1.0000
  C   C370      1.0  0.02480  0.18509  0.38898  1.0000
  C   C371      1.0  0.98577  0.14637  0.41993  1.0000
  H   H319      1.0  0.96625  0.13760  0.41782  1.0000
  H   H320      1.0  0.99051  0.14519  0.49030  1.0000
  H   H321      1.0  0.99063  0.13564  0.37681  1.0000
  C   C372      1.0  0.03788  0.17231  0.41936  1.0000
  H   H322      1.0  0.05740  0.18292  0.41643  1.0000
  H   H323      1.0  0.03280  0.15662  0.37645  1.0000
  H   H324      1.0  0.03329  0.16649  0.48991  1.0000
  C   C373      1.0  0.25408  0.61035  0.42946  1.0000
  C   C374      1.0  0.25019  0.63031  0.43973  1.0000
  C   C375      1.0  0.26131  0.60159  0.51176  1.0000
  H   H325      1.0  0.27088  0.59210  0.49466  1.0000
  H   H326      1.0  0.24547  0.58968  0.55198  1.0000
  H   H327      1.0  0.27371  0.61664  0.55438  1.0000
  C   C376      1.0  0.24370  0.63547  0.53190  1.0000
  H   H328      1.0  0.23488  0.64620  0.52866  1.0000
  H   H329      1.0  0.25973  0.64492  0.57424  1.0000
  H   H330      1.0  0.23094  0.61876  0.56580  1.0000
  C   C377      1.0  0.40373  0.63641  0.42956  1.0000
  C   C378      1.0  0.38377  0.61256  0.43985  1.0000
  C   C379      1.0  0.41253  0.65240  0.51186  1.0000
  H   H331      1.0  0.42203  0.67147  0.49475  1.0000
  H   H332      1.0  0.42443  0.64846  0.55203  1.0000
  H   H333      1.0  0.39748  0.64977  0.55452  1.0000
  C   C380      1.0  0.37862  0.60093  0.53203  1.0000
  H   H334      1.0  0.36788  0.58137  0.52881  1.0000
  H   H335      1.0  0.36917  0.60750  0.57437  1.0000
  H   H336      1.0  0.39533  0.60487  0.56593  1.0000
  C   C381      1.0  0.37765  0.76002  0.42941  1.0000
  C   C382      1.0  0.40149  0.76391  0.43968  1.0000
  C   C383      1.0  0.36165  0.75280  0.51170  1.0000
  H   H337      1.0  0.34259  0.74324  0.49460  1.0000
  H   H338      1.0  0.36559  0.76863  0.55196  1.0000
  H   H339      1.0  0.36429  0.74037  0.55429  1.0000
  C   C384      1.0  0.41314  0.77040  0.53186  1.0000
  H   H340      1.0  0.43269  0.77921  0.52863  1.0000
  H   H341      1.0  0.40656  0.75437  0.57422  1.0000
  H   H342      1.0  0.40919  0.78317  0.56574  1.0000
  C   C385      1.0  0.76962  0.39419  0.42949  1.0000
  C   C386      1.0  0.77352  0.37424  0.43976  1.0000
  C   C387      1.0  0.76240  0.40296  0.51180  1.0000
  H   H343      1.0  0.75283  0.41246  0.49471  1.0000
  H   H344      1.0  0.77823  0.41485  0.55206  1.0000
  H   H345      1.0  0.74997  0.38789  0.55438  1.0000
  C   C388      1.0  0.78003  0.36910  0.53193  1.0000
  H   H346      1.0  0.78883  0.35835  0.52867  1.0000
  H   H347      1.0  0.76401  0.35966  0.57435  1.0000
  H   H348      1.0  0.79281  0.38581  0.56574  1.0000
  C   C389      1.0  0.61988  0.36811  0.42944  1.0000
  C   C390      1.0  0.63983  0.39196  0.43968  1.0000
  C   C391      1.0  0.61113  0.35212  0.51175  1.0000
  H   H349      1.0  0.60162  0.33305  0.49465  1.0000
  H   H350      1.0  0.59923  0.35605  0.55205  1.0000
  H   H351      1.0  0.62619  0.35476  0.55429  1.0000
  C   C392      1.0  0.64500  0.40360  0.53185  1.0000
  H   H352      1.0  0.65574  0.42316  0.52860  1.0000
  H   H353      1.0  0.65445  0.39702  0.57420  1.0000
  H   H354      1.0  0.62829  0.39967  0.56575  1.0000
  C   C393      1.0  0.64594  0.24442  0.42944  1.0000
  C   C394      1.0  0.62209  0.24052  0.43967  1.0000
  C   C395      1.0  0.66192  0.25163  0.51178  1.0000
  H   H355      1.0  0.68099  0.26119  0.49473  1.0000
  H   H356      1.0  0.65796  0.23579  0.55201  1.0000
  H   H357      1.0  0.65928  0.26405  0.55437  1.0000
  C   C396      1.0  0.61043  0.23402  0.53183  1.0000
  H   H358      1.0  0.59088  0.22523  0.52857  1.0000
  H   H359      1.0  0.61702  0.25004  0.57424  1.0000
  H   H360      1.0  0.61435  0.22123  0.56566  1.0000
