data_image0
_chemical_formula_structural       C2H2C2H2C2H2C2H2C2H2C2H2C2H2C2H2C2H2C2H2C2H2C2H2C8H3NH2C8H3NH2C8H3NH2C8H3NH2C8H3NH2C8H3NH2C8H3NH2C8H3NH2C8H3NH2C8H3NH2C8H3NH2C8H3NH2C6H3C6H3C6H3C6H3C6H3C6H3C6H3C6H3C6H3C6H3C6H3C6H3C8H3NH2C8H3NH2C8H3NH2C8H3NH2C8H3NH2C8H3NH2C2H2C2H2C2H2C2H2C2H2C2H2C2H2C2H2C2H2C2H2C2H2C2H2C2H2C2H2C2H2C2H2C2H2C2H2C2H2C2H2C2H2C2H2C2H2C2H2
_chemical_formula_sum              "C288 H198 N18"
_cell_length_a       56.7499
_cell_length_b       56.7498
_cell_length_c       14.8474
_cell_angle_alpha    90
_cell_angle_beta     90
_cell_angle_gamma    120

_space_group_name_H-M_alt    "P 1"
_space_group_IT_number       1

loop_
  _space_group_symop_operation_xyz
  'x, y, z'

loop_
  _atom_site_type_symbol
  _atom_site_label
  _atom_site_symmetry_multiplicity
  _atom_site_fract_x
  _atom_site_fract_y
  _atom_site_fract_z
  _atom_site_occupancy
  C   C1        1.0  0.19856  0.36594  0.27537  1.0000
  C   C2        1.0  0.18459  0.33728  0.27425  1.0000
  H   H1        1.0  0.21146  0.37619  0.22314  1.0000
  H   H2        1.0  0.18745  0.32754  0.22091  1.0000
  C   C3        1.0  0.21821  0.45294  0.28214  1.0000
  C   C4        1.0  0.20375  0.42423  0.28305  1.0000
  H   H3        1.0  0.21276  0.46269  0.23576  1.0000
  H   H4        1.0  0.18801  0.41407  0.23870  1.0000
  C   C5        1.0  0.64110  0.82942  0.27549  1.0000
  C   C6        1.0  0.66975  0.84412  0.27439  1.0000
  H   H5        1.0  0.63084  0.83210  0.22334  1.0000
  H   H6        1.0  0.67949  0.85674  0.22109  1.0000
  C   C7        1.0  0.55411  0.76202  0.28217  1.0000
  C   C8        1.0  0.58282  0.77628  0.28306  1.0000
  H   H7        1.0  0.54435  0.74682  0.23577  1.0000
  H   H8        1.0  0.59298  0.77070  0.23870  1.0000
  C   C9        1.0  0.17757  0.80841  0.27561  1.0000
  C   C10       1.0  0.16288  0.82237  0.27452  1.0000
  H   H9        1.0  0.17486  0.79544  0.22352  1.0000
  H   H10       1.0  0.15022  0.81945  0.22130  1.0000
  C   C11       1.0  0.24501  0.78886  0.28214  1.0000
  C   C12       1.0  0.23075  0.80330  0.28302  1.0000
  H   H11       1.0  0.26019  0.79428  0.23569  1.0000
  H   H12       1.0  0.23631  0.81903  0.23864  1.0000
  C   C13       1.0  0.81292  0.63660  0.27563  1.0000
  C   C14       1.0  0.82688  0.66525  0.27453  1.0000
  H   H13       1.0  0.79995  0.62634  0.22355  1.0000
  H   H14       1.0  0.82395  0.67499  0.22131  1.0000
  C   C15       1.0  0.79336  0.54961  0.28220  1.0000
  C   C16       1.0  0.80781  0.57831  0.28309  1.0000
  H   H15       1.0  0.79880  0.53985  0.23579  1.0000
  H   H16       1.0  0.82355  0.58847  0.23873  1.0000
  C   C17       1.0  0.37044  0.17314  0.27540  1.0000
  C   C18       1.0  0.34179  0.15846  0.27428  1.0000
  H   H17       1.0  0.38069  0.17049  0.22320  1.0000
  H   H18       1.0  0.33204  0.14585  0.22096  1.0000
  C   C19       1.0  0.45744  0.24049  0.28215  1.0000
  C   C20       1.0  0.42874  0.22624  0.28305  1.0000
  H   H19       1.0  0.46720  0.25569  0.23576  1.0000
  H   H20       1.0  0.41858  0.23182  0.23869  1.0000
  C   C21       1.0  0.83393  0.19411  0.27548  1.0000
  C   C22       1.0  0.84862  0.18015  0.27439  1.0000
  H   H21       1.0  0.83661  0.20705  0.22334  1.0000
  H   H22       1.0  0.86125  0.18304  0.22110  1.0000
  C   C23       1.0  0.76654  0.21372  0.28215  1.0000
  C   C24       1.0  0.78079  0.19927  0.28303  1.0000
  H   H23       1.0  0.75134  0.20828  0.23575  1.0000
  H   H24       1.0  0.77521  0.18353  0.23868  1.0000
  C   C25       1.0  0.23955  0.16167  0.34228  1.0000
  C   C26       1.0  0.24136  0.17782  0.26722  1.0000
  C   C27       1.0  0.22712  0.19247  0.26337  1.0000
  C   C28       1.0  0.21077  0.19122  0.33831  1.0000
  C   C29       1.0  0.19582  0.20537  0.34049  1.0000
  C   C30       1.0  0.17277  0.19727  0.28506  1.0000
  C   C31       1.0  0.15831  0.21151  0.28638  1.0000
  C   C32       1.0  0.16636  0.23450  0.34262  1.0000
  H   H25       1.0  0.16640  0.18094  0.24280  1.0000
  H   H26       1.0  0.14206  0.20523  0.24384  1.0000
  H   H27       1.0  0.25315  0.17872  0.21359  1.0000
  N   N1        1.0  0.23008  0.20760  0.18857  1.0000
  H   H28       1.0  0.24148  0.20833  0.13843  1.0000
  H   H29       1.0  0.22149  0.21864  0.18326  1.0000
  C   C33       1.0  0.84538  0.07466  0.34226  1.0000
  C   C34       1.0  0.82924  0.06032  0.26716  1.0000
  C   C35       1.0  0.81460  0.03143  0.26331  1.0000
  C   C36       1.0  0.81582  0.01633  0.33829  1.0000
  C   C37       1.0  0.80167  0.98723  0.34047  1.0000
  C   C38       1.0  0.80977  0.97228  0.28506  1.0000
  C   C39       1.0  0.79553  0.94358  0.28635  1.0000
  C   C40       1.0  0.77255  0.92864  0.34261  1.0000
  H   H30       1.0  0.82611  0.98225  0.24282  1.0000
  H   H31       1.0  0.80182  0.93361  0.24387  1.0000
  H   H32       1.0  0.82837  0.07121  0.21349  1.0000
  N   N2        1.0  0.79950  0.01926  0.18846  1.0000
  H   H33       1.0  0.79878  0.02994  0.13829  1.0000
  H   H34       1.0  0.78845  0.99963  0.18314  1.0000
  C   C41       1.0  0.93239  0.76750  0.34229  1.0000
  C   C42       1.0  0.94672  0.76586  0.26693  1.0000
  C   C43       1.0  0.97561  0.78009  0.26310  1.0000
  C   C44       1.0  0.99071  0.79627  0.33832  1.0000
  C   C45       1.0  0.01982  0.81122  0.34050  1.0000
  C   C46       1.0  0.03477  0.83430  0.28519  1.0000
  C   C47       1.0  0.06347  0.84876  0.28650  1.0000
  C   C48       1.0  0.07841  0.84069  0.34267  1.0000
  H   H35       1.0  0.02480  0.84068  0.24298  1.0000
  H   H36       1.0  0.07344  0.86502  0.24402  1.0000
  H   H37       1.0  0.93582  0.75418  0.21310  1.0000
  N   N3        1.0  0.98777  0.77728  0.18801  1.0000
  H   H38       1.0  0.97709  0.76593  0.13778  1.0000
  H   H39       1.0  0.00740  0.78579  0.18279  1.0000
  C   C49       1.0  0.77201  0.84089  0.34224  1.0000
  C   C50       1.0  0.77026  0.82480  0.26706  1.0000
  C   C51       1.0  0.78449  0.81015  0.26323  1.0000
  C   C52       1.0  0.80077  0.81132  0.33827  1.0000
  C   C53       1.0  0.81572  0.79717  0.34046  1.0000
  C   C54       1.0  0.83877  0.80527  0.28507  1.0000
  C   C55       1.0  0.85324  0.79103  0.28639  1.0000
  C   C56       1.0  0.84518  0.76804  0.34261  1.0000
  H   H40       1.0  0.84514  0.82161  0.24280  1.0000
  H   H41       1.0  0.86949  0.79732  0.24386  1.0000
  H   H42       1.0  0.75851  0.82396  0.21336  1.0000
  N   N4        1.0  0.78159  0.79509  0.18830  1.0000
  H   H43       1.0  0.77021  0.79438  0.13813  1.0000
  H   H44       1.0  0.79014  0.78401  0.18304  1.0000
  C   C57       1.0  0.16616  0.92790  0.34232  1.0000
  C   C58       1.0  0.18230  0.94224  0.26723  1.0000
  C   C59       1.0  0.19695  0.97113  0.26339  1.0000
  C   C60       1.0  0.19572  0.98623  0.33834  1.0000
  C   C61       1.0  0.20987  0.01533  0.34053  1.0000
  C   C62       1.0  0.20177  0.03028  0.28511  1.0000
  C   C63       1.0  0.21601  0.05898  0.28643  1.0000
  C   C64       1.0  0.23900  0.07391  0.34265  1.0000
  H   H45       1.0  0.18543  0.02031  0.24286  1.0000
  H   H46       1.0  0.20973  0.06895  0.24390  1.0000
  H   H47       1.0  0.18319  0.93134  0.21359  1.0000
  N   N5        1.0  0.21206  0.98329  0.18856  1.0000
  H   H48       1.0  0.21278  0.97262  0.13840  1.0000
  H   H49       1.0  0.22311  0.00293  0.18324  1.0000
  C   C65       1.0  0.07915  0.23505  0.34224  1.0000
  C   C66       1.0  0.06481  0.23685  0.26717  1.0000
  C   C67       1.0  0.03592  0.22261  0.26333  1.0000
  C   C68       1.0  0.02082  0.20628  0.33828  1.0000
  C   C69       1.0  0.99172  0.19133  0.34047  1.0000
  C   C70       1.0  0.97677  0.16827  0.28506  1.0000
  C   C71       1.0  0.94806  0.15382  0.28635  1.0000
  C   C72       1.0  0.93313  0.16187  0.34261  1.0000
  H   H50       1.0  0.98674  0.16190  0.24281  1.0000
  H   H51       1.0  0.93809  0.13755  0.24386  1.0000
  H   H52       1.0  0.07570  0.24862  0.21351  1.0000
  N   N6        1.0  0.02375  0.22555  0.18849  1.0000
  H   H53       1.0  0.03443  0.23695  0.13833  1.0000
  H   H54       1.0  0.00412  0.21696  0.18318  1.0000
  C   C73       1.0  0.24033  0.68000  0.35484  1.0000
  C   C74       1.0  0.22629  0.66365  0.27992  1.0000
  C   C75       1.0  0.22052  0.63633  0.27228  1.0000
  C   C76       1.0  0.22947  0.62516  0.34165  1.0000
  C   C77       1.0  0.23034  0.60051  0.33115  1.0000
  C   C78       1.0  0.24447  0.59774  0.25711  1.0000
  C   C79       1.0  0.25012  0.57630  0.25316  1.0000
  C   C80       1.0  0.24220  0.55708  0.32384  1.0000
  H   H55       1.0  0.25261  0.61247  0.20841  1.0000
  H   H56       1.0  0.26211  0.57620  0.20173  1.0000
  H   H57       1.0  0.22179  0.67235  0.22710  1.0000
  N   N7        1.0  0.20705  0.62190  0.19775  1.0000
  H   H58       1.0  0.20071  0.62970  0.15191  1.0000
  H   H59       1.0  0.20100  0.60265  0.19212  1.0000
  C   C81       1.0  0.32709  0.55712  0.35486  1.0000
  C   C82       1.0  0.34341  0.55937  0.27996  1.0000
  C   C83       1.0  0.37074  0.58092  0.27234  1.0000
  C   C84       1.0  0.38193  0.60104  0.34170  1.0000
  C   C85       1.0  0.40654  0.62658  0.33115  1.0000
  C   C86       1.0  0.40928  0.64346  0.25708  1.0000
  C   C87       1.0  0.43071  0.67053  0.25303  1.0000
  C   C88       1.0  0.44995  0.68187  0.32365  1.0000
  H   H60       1.0  0.39452  0.63685  0.20846  1.0000
  H   H61       1.0  0.43077  0.68263  0.20170  1.0000
  H   H62       1.0  0.33470  0.54616  0.22714  1.0000
  N   N8        1.0  0.38518  0.58186  0.19785  1.0000
  H   H63       1.0  0.37733  0.56778  0.15181  1.0000
  H   H64       1.0  0.40440  0.59511  0.19198  1.0000
  C   C89       1.0  0.44994  0.76673  0.35478  1.0000
  C   C90       1.0  0.44767  0.78082  0.27997  1.0000
  C   C91       1.0  0.42612  0.78659  0.27233  1.0000
  C   C92       1.0  0.40599  0.77764  0.34165  1.0000
  C   C93       1.0  0.38044  0.77670  0.33108  1.0000
  C   C94       1.0  0.36355  0.76255  0.25704  1.0000
  C   C95       1.0  0.33650  0.75697  0.25291  1.0000
  C   C96       1.0  0.32516  0.76485  0.32359  1.0000
  H   H65       1.0  0.37019  0.75448  0.20825  1.0000
  H   H66       1.0  0.32440  0.74496  0.20154  1.0000
  H   H67       1.0  0.46089  0.78534  0.22718  1.0000
  N   N9        1.0  0.42520  0.80012  0.19790  1.0000
  H   H68       1.0  0.43923  0.80629  0.15168  1.0000
  H   H69       1.0  0.41188  0.80599  0.19185  1.0000
  C   C97       1.0  0.77125  0.32260  0.35481  1.0000
  C   C98       1.0  0.78537  0.33895  0.27999  1.0000
  C   C99       1.0  0.79111  0.36626  0.27233  1.0000
  C   C100      1.0  0.78216  0.37743  0.34167  1.0000
  C   C101      1.0  0.78121  0.40203  0.33109  1.0000
  C   C102      1.0  0.76704  0.40476  0.25707  1.0000
  C   C103      1.0  0.76138  0.42618  0.25307  1.0000
  C   C104      1.0  0.76932  0.44542  0.32367  1.0000
  H   H70       1.0  0.75896  0.39004  0.20832  1.0000
  H   H71       1.0  0.74943  0.42632  0.20155  1.0000
  H   H72       1.0  0.78985  0.33023  0.22719  1.0000
  N   N10       1.0  0.80462  0.38071  0.19788  1.0000
  H   H73       1.0  0.81080  0.37286  0.15166  1.0000
  H   H74       1.0  0.81049  0.39990  0.19181  1.0000
  C   C105      1.0  0.68448  0.44545  0.35486  1.0000
  C   C106      1.0  0.66814  0.44312  0.27988  1.0000
  C   C107      1.0  0.64082  0.42156  0.27222  1.0000
  C   C108      1.0  0.62965  0.40146  0.34164  1.0000
  C   C109      1.0  0.60501  0.37594  0.33114  1.0000
  C   C110      1.0  0.60226  0.35902  0.25716  1.0000
  C   C111      1.0  0.58083  0.33194  0.25322  1.0000
  C   C112      1.0  0.56159  0.32064  0.32386  1.0000
  H   H75       1.0  0.61700  0.36561  0.20850  1.0000
  H   H76       1.0  0.58074  0.31984  0.20183  1.0000
  H   H77       1.0  0.67686  0.45632  0.22703  1.0000
  N   N11       1.0  0.62641  0.42059  0.19764  1.0000
  H   H78       1.0  0.63421  0.43472  0.15177  1.0000
  H   H79       1.0  0.60716  0.40738  0.19199  1.0000
  C   C113      1.0  0.56163  0.23580  0.35503  1.0000
  C   C114      1.0  0.56389  0.22175  0.28007  1.0000
  C   C115      1.0  0.58544  0.21598  0.27238  1.0000
  C   C116      1.0  0.60556  0.22488  0.34174  1.0000
  C   C117      1.0  0.63110  0.22582  0.33114  1.0000
  C   C118      1.0  0.64798  0.23999  0.25709  1.0000
  C   C119      1.0  0.67506  0.24565  0.25301  1.0000
  C   C120      1.0  0.68639  0.23774  0.32361  1.0000
  H   H80       1.0  0.64136  0.24814  0.20852  1.0000
  H   H81       1.0  0.68716  0.25770  0.20171  1.0000
  H   H82       1.0  0.55068  0.21727  0.22726  1.0000
  N   N12       1.0  0.58639  0.20250  0.19784  1.0000
  H   H83       1.0  0.57230  0.19627  0.15179  1.0000
  H   H84       1.0  0.59964  0.19653  0.19191  1.0000
  C   C121      1.0  0.10822  0.24949  0.34381  1.0000
  C   C122      1.0  0.12291  0.23537  0.34438  1.0000
  C   C123      1.0  0.15178  0.24922  0.34302  1.0000
  C   C124      1.0  0.16576  0.27810  0.34182  1.0000
  C   C125      1.0  0.15181  0.29297  0.34273  1.0000
  C   C126      1.0  0.12301  0.27828  0.34331  1.0000
  H   H85       1.0  0.18660  0.28862  0.34039  1.0000
  H   H86       1.0  0.11260  0.28873  0.34318  1.0000
  H   H87       1.0  0.11227  0.21453  0.34570  1.0000
  C   C127      1.0  0.75756  0.85552  0.34382  1.0000
  C   C128      1.0  0.77168  0.88432  0.34438  1.0000
  C   C129      1.0  0.75782  0.89934  0.34302  1.0000
  C   C130      1.0  0.72894  0.88444  0.34183  1.0000
  C   C131      1.0  0.71408  0.85562  0.34275  1.0000
  C   C132      1.0  0.72877  0.84151  0.34333  1.0000
  H   H88       1.0  0.71842  0.89476  0.34041  1.0000
  H   H89       1.0  0.71833  0.82065  0.34320  1.0000
  H   H90       1.0  0.79252  0.89453  0.34570  1.0000
  C   C133      1.0  0.15153  0.89882  0.34389  1.0000
  C   C134      1.0  0.12272  0.88414  0.34447  1.0000
  C   C135      1.0  0.10771  0.85526  0.34308  1.0000
  C   C136      1.0  0.12261  0.84129  0.34188  1.0000
  C   C137      1.0  0.15143  0.85524  0.34279  1.0000
  C   C138      1.0  0.16554  0.88404  0.34337  1.0000
  H   H91       1.0  0.11229  0.82045  0.34044  1.0000
  H   H92       1.0  0.18639  0.89446  0.34323  1.0000
  H   H93       1.0  0.11252  0.89477  0.34579  1.0000
  C   C139      1.0  0.90331  0.75306  0.34386  1.0000
  C   C140      1.0  0.88863  0.76718  0.34440  1.0000
  C   C141      1.0  0.85976  0.75333  0.34304  1.0000
  C   C142      1.0  0.84578  0.72444  0.34187  1.0000
  C   C143      1.0  0.85973  0.70957  0.34281  1.0000
  C   C144      1.0  0.88854  0.72427  0.34338  1.0000
  H   H94       1.0  0.82494  0.71392  0.34044  1.0000
  H   H95       1.0  0.89895  0.71383  0.34325  1.0000
  H   H96       1.0  0.89926  0.78802  0.34572  1.0000
  C   C145      1.0  0.25399  0.14704  0.34385  1.0000
  C   C146      1.0  0.23987  0.11823  0.34442  1.0000
  C   C147      1.0  0.25372  0.10321  0.34305  1.0000
  C   C148      1.0  0.28261  0.11811  0.34185  1.0000
  C   C149      1.0  0.29747  0.14693  0.34275  1.0000
  C   C150      1.0  0.28278  0.16104  0.34333  1.0000
  H   H97       1.0  0.29312  0.10779  0.34041  1.0000
  H   H98       1.0  0.29323  0.18190  0.34321  1.0000
  H   H99       1.0  0.21903  0.10803  0.34574  1.0000
  C   C151      1.0  0.86001  0.10373  0.34383  1.0000
  C   C152      1.0  0.88881  0.11842  0.34438  1.0000
  C   C153      1.0  0.90383  0.14729  0.34302  1.0000
  C   C154      1.0  0.88893  0.16127  0.34182  1.0000
  C   C155      1.0  0.86011  0.14732  0.34275  1.0000
  C   C156      1.0  0.84600  0.11851  0.34332  1.0000
  H   H100      1.0  0.89925  0.18211  0.34040  1.0000
  H   H101      1.0  0.82514  0.10811  0.34319  1.0000
  H   H102      1.0  0.89902  0.10779  0.34570  1.0000
  C   C157      1.0  0.29824  0.54113  0.34896  1.0000
  C   C158      1.0  0.28362  0.55505  0.34034  1.0000
  C   C159      1.0  0.25506  0.54114  0.33201  1.0000
  C   C160      1.0  0.24084  0.51237  0.33451  1.0000
  C   C161      1.0  0.25477  0.49743  0.34146  1.0000
  C   C162      1.0  0.28366  0.51236  0.34766  1.0000
  H   H103      1.0  0.22004  0.50227  0.33078  1.0000
  H   H104      1.0  0.29435  0.50225  0.35150  1.0000
  H   H105      1.0  0.29409  0.57595  0.33983  1.0000
  C   C163      1.0  0.46592  0.75386  0.34896  1.0000
  C   C164      1.0  0.45199  0.72532  0.34024  1.0000
  C   C165      1.0  0.46590  0.71067  0.33195  1.0000
  C   C166      1.0  0.49467  0.72521  0.33450  1.0000
  C   C167      1.0  0.50962  0.75409  0.34150  1.0000
  C   C168      1.0  0.49469  0.76804  0.34770  1.0000
  H   H106      1.0  0.50477  0.71451  0.33075  1.0000
  H   H107      1.0  0.50480  0.78884  0.35156  1.0000
  H   H108      1.0  0.43109  0.71489  0.33966  1.0000
  C   C169      1.0  0.25318  0.70883  0.34894  1.0000
  C   C170      1.0  0.28173  0.72345  0.34022  1.0000
  C   C171      1.0  0.29637  0.75201  0.33190  1.0000
  C   C172      1.0  0.28182  0.76623  0.33446  1.0000
  C   C173      1.0  0.25295  0.75230  0.34147  1.0000
  C   C174      1.0  0.23899  0.72341  0.34769  1.0000
  H   H109      1.0  0.29252  0.78703  0.33069  1.0000
  H   H110      1.0  0.21820  0.71273  0.35159  1.0000
  H   H111      1.0  0.29215  0.71298  0.33966  1.0000
  C   C175      1.0  0.71332  0.46143  0.34898  1.0000
  C   C176      1.0  0.72793  0.44749  0.34028  1.0000
  C   C177      1.0  0.75649  0.46139  0.33196  1.0000
  C   C178      1.0  0.77072  0.49016  0.33453  1.0000
  C   C179      1.0  0.75680  0.50512  0.34154  1.0000
  C   C180      1.0  0.72791  0.49020  0.34773  1.0000
  H   H112      1.0  0.79151  0.50025  0.33075  1.0000
  H   H113      1.0  0.71723  0.50031  0.35161  1.0000
  H   H114      1.0  0.71744  0.42659  0.33972  1.0000
  C   C181      1.0  0.54563  0.24865  0.34915  1.0000
  C   C182      1.0  0.55956  0.27720  0.34046  1.0000
  C   C183      1.0  0.54565  0.29184  0.33205  1.0000
  C   C184      1.0  0.51688  0.27729  0.33456  1.0000
  C   C185      1.0  0.50193  0.24842  0.34152  1.0000
  C   C186      1.0  0.51686  0.23446  0.34775  1.0000
  H   H115      1.0  0.50678  0.28799  0.33077  1.0000
  H   H116      1.0  0.50675  0.21366  0.35160  1.0000
  H   H117      1.0  0.58046  0.28762  0.33998  1.0000
  C   C187      1.0  0.75838  0.29375  0.34902  1.0000
  C   C188      1.0  0.72984  0.27914  0.34026  1.0000
  C   C189      1.0  0.71519  0.25058  0.33196  1.0000
  C   C190      1.0  0.72973  0.23636  0.33451  1.0000
  C   C191      1.0  0.75861  0.25028  0.34150  1.0000
  C   C192      1.0  0.77257  0.27917  0.34771  1.0000
  H   H118      1.0  0.71903  0.21556  0.33073  1.0000
  H   H119      1.0  0.79337  0.28985  0.35157  1.0000
  H   H120      1.0  0.71942  0.28962  0.33967  1.0000
  C   C193      1.0  0.16639  0.32209  0.34406  1.0000
  C   C194      1.0  0.16302  0.33661  0.41560  1.0000
  C   C195      1.0  0.17730  0.36550  0.41910  1.0000
  C   C196      1.0  0.19536  0.38047  0.34732  1.0000
  C   C197      1.0  0.21044  0.40956  0.34493  1.0000
  C   C198      1.0  0.23232  0.42451  0.40479  1.0000
  C   C199      1.0  0.24689  0.45321  0.40320  1.0000
  C   C200      1.0  0.24011  0.46813  0.34219  1.0000
  H   H121      1.0  0.23773  0.41454  0.45054  1.0000
  H   H122      1.0  0.26223  0.46317  0.44898  1.0000
  H   H123      1.0  0.15005  0.32583  0.46707  1.0000
  N   N13       1.0  0.17278  0.37780  0.49044  1.0000
  H   H124      1.0  0.16018  0.36721  0.53834  1.0000
  H   H125      1.0  0.18133  0.39745  0.49506  1.0000
  C   C201      1.0  0.68495  0.84107  0.34409  1.0000
  C   C202      1.0  0.67044  0.82314  0.41554  1.0000
  C   C203      1.0  0.64155  0.80852  0.41904  1.0000
  C   C204      1.0  0.62658  0.81164  0.34736  1.0000
  C   C205      1.0  0.59749  0.79763  0.34498  1.0000
  C   C206      1.0  0.58254  0.80455  0.40487  1.0000
  C   C207      1.0  0.55383  0.79041  0.40327  1.0000
  C   C208      1.0  0.53891  0.76872  0.34224  1.0000
  H   H126      1.0  0.59250  0.81991  0.45065  1.0000
  H   H127      1.0  0.54387  0.79578  0.44908  1.0000
  H   H128      1.0  0.68122  0.82091  0.46695  1.0000
  N   N14       1.0  0.62925  0.79165  0.49030  1.0000
  H   H129      1.0  0.63984  0.78964  0.53819  1.0000
  H   H130      1.0  0.60960  0.78058  0.49498  1.0000
  C   C209      1.0  0.16598  0.84066  0.34411  1.0000
  C   C210      1.0  0.18396  0.84412  0.41545  1.0000
  C   C211      1.0  0.19857  0.82985  0.41894  1.0000
  C   C212      1.0  0.19540  0.81171  0.34736  1.0000
  C   C213      1.0  0.20941  0.79663  0.34496  1.0000
  C   C214      1.0  0.20250  0.77477  0.40491  1.0000
  C   C215      1.0  0.21663  0.76020  0.40329  1.0000
  C   C216      1.0  0.23832  0.76697  0.34222  1.0000
  H   H131      1.0  0.18714  0.76937  0.45069  1.0000
  H   H132      1.0  0.21128  0.74487  0.44912  1.0000
  H   H133      1.0  0.18622  0.85717  0.46679  1.0000
  N   N15       1.0  0.21549  0.83446  0.49007  1.0000
  H   H134      1.0  0.21752  0.84707  0.53795  1.0000
  H   H135      1.0  0.22654  0.82586  0.49479  1.0000
  C   C217      1.0  0.84516  0.68045  0.34414  1.0000
  C   C218      1.0  0.84862  0.66593  0.41549  1.0000
  C   C219      1.0  0.83435  0.63704  0.41898  1.0000
  C   C220      1.0  0.81621  0.62207  0.34740  1.0000
  C   C221      1.0  0.80113  0.59298  0.34502  1.0000
  C   C222      1.0  0.77927  0.57804  0.40494  1.0000
  C   C223      1.0  0.76471  0.54934  0.40337  1.0000
  C   C224      1.0  0.77147  0.53441  0.34229  1.0000
  H   H136      1.0  0.77387  0.58800  0.45071  1.0000
  H   H137      1.0  0.74937  0.53937  0.44914  1.0000
  H   H138      1.0  0.86165  0.67672  0.46684  1.0000
  N   N16       1.0  0.83896  0.62474  0.49015  1.0000
  H   H139      1.0  0.85156  0.63533  0.53803  1.0000
  H   H140      1.0  0.83036  0.60509  0.49488  1.0000
  C   C225      1.0  0.32660  0.16148  0.34407  1.0000
  C   C226      1.0  0.34111  0.17937  0.41560  1.0000
  C   C227      1.0  0.37000  0.19398  0.41909  1.0000
  C   C228      1.0  0.38497  0.19088  0.34733  1.0000
  C   C229      1.0  0.41406  0.20489  0.34494  1.0000
  C   C230      1.0  0.42901  0.19796  0.40483  1.0000
  C   C231      1.0  0.45771  0.21209  0.40325  1.0000
  C   C232      1.0  0.47264  0.23379  0.34222  1.0000
  H   H141      1.0  0.41904  0.18259  0.45060  1.0000
  H   H142      1.0  0.46767  0.20672  0.44905  1.0000
  H   H143      1.0  0.33033  0.18158  0.46706  1.0000
  N   N17       1.0  0.38231  0.21082  0.49041  1.0000
  H   H144      1.0  0.37172  0.21283  0.53830  1.0000
  H   H145      1.0  0.40195  0.22191  0.49503  1.0000
  C   C233      1.0  0.84557  0.16190  0.34408  1.0000
  C   C234      1.0  0.82763  0.15848  0.41551  1.0000
  C   C235      1.0  0.81302  0.17276  0.41901  1.0000
  C   C236      1.0  0.81615  0.19086  0.34734  1.0000
  C   C237      1.0  0.80214  0.20594  0.34495  1.0000
  C   C238      1.0  0.80906  0.22781  0.40485  1.0000
  C   C239      1.0  0.79493  0.24238  0.40326  1.0000
  C   C240      1.0  0.77324  0.23561  0.34223  1.0000
  H   H146      1.0  0.82443  0.23321  0.45063  1.0000
  H   H147      1.0  0.80030  0.25771  0.44908  1.0000
  H   H148      1.0  0.82540  0.14547  0.46692  1.0000
  N   N18       1.0  0.79615  0.16819  0.49026  1.0000
  H   H149      1.0  0.79413  0.15559  0.53814  1.0000
  H   H150      1.0  0.78507  0.17677  0.49493  1.0000
  C   C241      1.0  0.20918  0.17522  0.41373  1.0000
  C   C242      1.0  0.22304  0.16043  0.41529  1.0000
  H   H151      1.0  0.19751  0.17389  0.46826  1.0000
  H   H152      1.0  0.22136  0.14908  0.47107  1.0000
  C   C243      1.0  0.18944  0.24239  0.39823  1.0000
  C   C244      1.0  0.20379  0.22803  0.39771  1.0000
  H   H153      1.0  0.19584  0.25857  0.44116  1.0000
  H   H154      1.0  0.22040  0.23449  0.43876  1.0000
  C   C245      1.0  0.83180  0.03074  0.41375  1.0000
  C   C246      1.0  0.84658  0.05939  0.41533  1.0000
  H   H155      1.0  0.83311  0.02040  0.46831  1.0000
  H   H156      1.0  0.85793  0.06907  0.47112  1.0000
  C   C247      1.0  0.76465  0.94383  0.39823  1.0000
  C   C248      1.0  0.77901  0.97254  0.39769  1.0000
  H   H157      1.0  0.74846  0.93405  0.44112  1.0000
  H   H158      1.0  0.77255  0.98269  0.43870  1.0000
  C   C249      1.0  0.97630  0.79769  0.41403  1.0000
  C   C250      1.0  0.94766  0.78382  0.41562  1.0000
  H   H159      1.0  0.98665  0.80924  0.46876  1.0000
  H   H160      1.0  0.93798  0.78539  0.47159  1.0000
  C   C251      1.0  0.06322  0.81759  0.39823  1.0000
  C   C252      1.0  0.03451  0.80323  0.39765  1.0000
  H   H161      1.0  0.07299  0.81117  0.44108  1.0000
  H   H162      1.0  0.02436  0.78661  0.43864  1.0000
  C   C253      1.0  0.80229  0.82726  0.41382  1.0000
  C   C254      1.0  0.78844  0.84205  0.41539  1.0000
  H   H163      1.0  0.81392  0.82854  0.46843  1.0000
  H   H164      1.0  0.79007  0.85336  0.47125  1.0000
  C   C255      1.0  0.82210  0.76015  0.39823  1.0000
  C   C256      1.0  0.80775  0.77451  0.39767  1.0000
  H   H165      1.0  0.81569  0.74397  0.44112  1.0000
  H   H166      1.0  0.79113  0.76805  0.43869  1.0000
  C   C257      1.0  0.17973  0.97182  0.41380  1.0000
  C   C258      1.0  0.16494  0.94317  0.41536  1.0000
  H   H167      1.0  0.17841  0.98216  0.46835  1.0000
  H   H168      1.0  0.15360  0.93349  0.47116  1.0000
  C   C259      1.0  0.24690  0.05872  0.39825  1.0000
  C   C260      1.0  0.23253  0.03002  0.39773  1.0000
  H   H169      1.0  0.26308  0.06850  0.44118  1.0000
  H   H170      1.0  0.23899  0.01986  0.43877  1.0000
  C   C261      1.0  0.03523  0.20469  0.41373  1.0000
  C   C262      1.0  0.06388  0.21856  0.41530  1.0000
  H   H171      1.0  0.02489  0.19303  0.46827  1.0000
  H   H172      1.0  0.07356  0.21689  0.47108  1.0000
  C   C263      1.0  0.94832  0.18495  0.39823  1.0000
  C   C264      1.0  0.97703  0.19930  0.39769  1.0000
  H   H173      1.0  0.93855  0.19136  0.44112  1.0000
  H   H174      1.0  0.98718  0.21591  0.43870  1.0000
  C   C265      1.0  0.24232  0.64126  0.41861  1.0000
  C   C266      1.0  0.24761  0.66814  0.42519  1.0000
  H   H175      1.0  0.25009  0.63439  0.46774  1.0000
  H   H176      1.0  0.25899  0.67978  0.47837  1.0000
  C   C267      1.0  0.22735  0.55923  0.39666  1.0000
  C   C268      1.0  0.22151  0.58062  0.40013  1.0000
  H   H177      1.0  0.22266  0.54662  0.45124  1.0000
  H   H178      1.0  0.21213  0.58252  0.45630  1.0000
  C   C269      1.0  0.36581  0.59783  0.41860  1.0000
  C   C270      1.0  0.33893  0.57623  0.42526  1.0000
  H   H179      1.0  0.37268  0.61250  0.46760  1.0000
  H   H180      1.0  0.32728  0.57605  0.47829  1.0000
  C   C271      1.0  0.44785  0.66488  0.39644  1.0000
  C   C272      1.0  0.42647  0.63763  0.39999  1.0000
  H   H181      1.0  0.46046  0.67282  0.45101  1.0000
  H   H182      1.0  0.42458  0.62637  0.45624  1.0000
  C   C273      1.0  0.40918  0.76469  0.41844  1.0000
  C   C274      1.0  0.43079  0.75942  0.42511  1.0000
  H   H183      1.0  0.39451  0.75687  0.46747  1.0000
  H   H184      1.0  0.43097  0.74794  0.47812  1.0000
  C   C275      1.0  0.34216  0.77975  0.39638  1.0000
  C   C276      1.0  0.36939  0.78556  0.39996  1.0000
  H   H185      1.0  0.33422  0.78434  0.45109  1.0000
  H   H186      1.0  0.38065  0.79490  0.45624  1.0000
  C   C277      1.0  0.76923  0.36131  0.41853  1.0000
  C   C278      1.0  0.76392  0.33443  0.42513  1.0000
  H   H187      1.0  0.76143  0.36818  0.46758  1.0000
  H   H188      1.0  0.75251  0.32277  0.47825  1.0000
  C   C279      1.0  0.78420  0.44333  0.39649  1.0000
  C   C280      1.0  0.79009  0.42197  0.39994  1.0000
  H   H189      1.0  0.78890  0.45595  0.45102  1.0000
  H   H190      1.0  0.79946  0.42006  0.45617  1.0000
  C   C281      1.0  0.64573  0.40473  0.41865  1.0000
  C   C282      1.0  0.67261  0.42633  0.42524  1.0000
  H   H191      1.0  0.63886  0.39011  0.46781  1.0000
  H   H192      1.0  0.68425  0.42660  0.47847  1.0000
  C   C283      1.0  0.56371  0.33765  0.39662  1.0000
  C   C284      1.0  0.58511  0.36489  0.40008  1.0000
  H   H193      1.0  0.55110  0.32974  0.45117  1.0000
  H   H194      1.0  0.58699  0.37618  0.45622  1.0000
  C   C285      1.0  0.60234  0.23777  0.41868  1.0000
  C   C286      1.0  0.58075  0.24305  0.42540  1.0000
  H   H195      1.0  0.61701  0.24556  0.46769  1.0000
  H   H196      1.0  0.58056  0.25450  0.47847  1.0000
  C   C287      1.0  0.66941  0.22281  0.39639  1.0000
  C   C288      1.0  0.64216  0.21694  0.39994  1.0000
  H   H197      1.0  0.67736  0.21815  0.45092  1.0000
  H   H198      1.0  0.63090  0.20755  0.45617  1.0000
