data_image0
_chemical_formula_structural       C4HNO2C4HNO2C4HNO2C4HNO2C4HNO2C4HNO2C2H2C2H2C2H2C2H2C2H2C2H2C2H2C2H2C2H2C2H2C2H2C2H2C4HNO2C4HNO2C4HNO2C4HNO2C4HNO2C4HNO2C2H2C2H2C2H2C2H2C2H2C2H2C2H2C2H2C2H2C2H2C2H2C2H2CNCNCNCNCNCNCNCNCNCNCNCNCNCNCNCNCNCNCNCNCNCNCNCNCNCNCNCNCNCNCNCNCNCNCNCNCNCNCNCNCNCNCNCNCNCNCNCNCNCNCNCNCNCNCNCNCNCNCNCNCNCNCNCNCNCNCNCNCNCNCNCNC2H2C2H2C2H2C2H2C2H2C2H2C4HNO2C4HNO2C4HNO2C4HNO2C4HNO2C4HNO2C4HNO2C4HNO2C4HNO2C4HNO2C4HNO2C4HNO2C2H2C2H2C2H2C2H2C2H2C2H2C4HNO2C4HNO2C4HNO2C4HNO2C4HNO2C4HNO2C4HNO2C4HNO2C4HNO2C4HNO2C4HNO2C4HNO2
_chemical_formula_sum              "C288 H108 N108 O72"
_cell_length_a       53.8351
_cell_length_b       53.835
_cell_length_c       14.8496
_cell_angle_alpha    90
_cell_angle_beta     90
_cell_angle_gamma    120

_space_group_name_H-M_alt    "P 1"
_space_group_IT_number       1

loop_
  _space_group_symop_operation_xyz
  'x, y, z'

loop_
  _atom_site_type_symbol
  _atom_site_label
  _atom_site_symmetry_multiplicity
  _atom_site_fract_x
  _atom_site_fract_y
  _atom_site_fract_z
  _atom_site_occupancy
  C   C1        1.0  0.14262  0.45977  0.34511  1.0000
  C   C2        1.0  0.12870  0.44499  0.26546  1.0000
  C   C3        1.0  0.11584  0.41467  0.25883  1.0000
  C   C4        1.0  0.11703  0.39883  0.33353  1.0000
  H   H1        1.0  0.12996  0.45646  0.20895  1.0000
  N   N1        1.0  0.10395  0.40010  0.17689  1.0000
  O   O1        1.0  0.12251  0.40852  0.11558  1.0000
  O   O2        1.0  0.08366  0.40359  0.15136  1.0000
  C   C5        1.0  0.55283  0.68516  0.34370  1.0000
  C   C6        1.0  0.56757  0.68691  0.26307  1.0000
  C   C7        1.0  0.59788  0.70451  0.25677  1.0000
  C   C8        1.0  0.61372  0.72062  0.33285  1.0000
  H   H2        1.0  0.55609  0.67744  0.20587  1.0000
  N   N2        1.0  0.61243  0.70818  0.17414  1.0000
  O   O3        1.0  0.60401  0.71906  0.11521  1.0000
  O   O4        1.0  0.60896  0.68475  0.14510  1.0000
  C   C9        1.0  0.32717  0.86980  0.34628  1.0000
  C   C10       1.0  0.32705  0.88450  0.26760  1.0000
  C   C11       1.0  0.30968  0.89747  0.26099  1.0000
  C   C12       1.0  0.29196  0.89555  0.33461  1.0000
  H   H3        1.0  0.33775  0.88376  0.21158  1.0000
  N   N3        1.0  0.30778  0.91020  0.17983  1.0000
  O   O5        1.0  0.29822  0.89229  0.11659  1.0000
  O   O6        1.0  0.33179  0.93074  0.15719  1.0000
  C   C13       1.0  0.87262  0.55022  0.34466  1.0000
  C   C14       1.0  0.88627  0.56504  0.26475  1.0000
  C   C15       1.0  0.89904  0.59536  0.25834  1.0000
  C   C16       1.0  0.89815  0.61117  0.33360  1.0000
  H   H4        1.0  0.88471  0.55360  0.20788  1.0000
  N   N4        1.0  0.91059  0.60995  0.17619  1.0000
  O   O7        1.0  0.89177  0.60154  0.11566  1.0000
  O   O8        1.0  0.93079  0.60650  0.14942  1.0000
  C   C17       1.0  0.46237  0.32478  0.34500  1.0000
  C   C18       1.0  0.44760  0.32392  0.26533  1.0000
  C   C19       1.0  0.41728  0.30645  0.25868  1.0000
  C   C20       1.0  0.40142  0.28942  0.33336  1.0000
  H   H5        1.0  0.45908  0.33412  0.20883  1.0000
  N   N5        1.0  0.40272  0.30378  0.17672  1.0000
  O   O9        1.0  0.41114  0.29363  0.11542  1.0000
  O   O10       1.0  0.40621  0.32756  0.15118  1.0000
  C   C21       1.0  0.68761  0.13981  0.34341  1.0000
  C   C22       1.0  0.68959  0.12707  0.26253  1.0000
  C   C23       1.0  0.70723  0.11440  0.25625  1.0000
  C   C24       1.0  0.72311  0.11443  0.33261  1.0000
  H   H6        1.0  0.68029  0.12926  0.20522  1.0000
  N   N6        1.0  0.71114  0.10378  0.17346  1.0000
  O   O11       1.0  0.72218  0.12326  0.11513  1.0000
  O   O12       1.0  0.68779  0.08390  0.14357  1.0000
  C   C25       1.0  0.41707  0.10724  0.30202  1.0000
  C   C26       1.0  0.44730  0.12076  0.30601  1.0000
  H   H7        1.0  0.40671  0.09392  0.24891  1.0000
  H   H8        1.0  0.45796  0.11727  0.25496  1.0000
  C   C27       1.0  0.70032  0.59566  0.30208  1.0000
  C   C28       1.0  0.68355  0.56543  0.30593  1.0000
  H   H9        1.0  0.69735  0.60608  0.24916  1.0000
  H   H10       1.0  0.66942  0.55480  0.25480  1.0000
  C   C29       1.0  0.90544  0.31234  0.30192  1.0000
  C   C30       1.0  0.89193  0.32906  0.30597  1.0000
  H   H11       1.0  0.91870  0.31525  0.24868  1.0000
  H   H12       1.0  0.89537  0.34317  0.25484  1.0000
  C   C31       1.0  0.59815  0.90293  0.30200  1.0000
  C   C32       1.0  0.56792  0.88948  0.30592  1.0000
  H   H13       1.0  0.60855  0.91630  0.24904  1.0000
  H   H14       1.0  0.55727  0.89296  0.25481  1.0000
  C   C33       1.0  0.31490  0.41454  0.30232  1.0000
  C   C34       1.0  0.33160  0.44478  0.30624  1.0000
  H   H15       1.0  0.31786  0.40418  0.24924  1.0000
  H   H16       1.0  0.34575  0.45543  0.25518  1.0000
  C   C35       1.0  0.10972  0.69778  0.30192  1.0000
  C   C36       1.0  0.12316  0.68099  0.30576  1.0000
  H   H17       1.0  0.09628  0.69477  0.24912  1.0000
  H   H18       1.0  0.11960  0.66681  0.25475  1.0000
  C   C37       1.0  0.26446  0.54603  0.31642  1.0000
  C   C38       1.0  0.29087  0.54651  0.31658  1.0000
  H   H19       1.0  0.26169  0.55878  0.27120  1.0000
  H   H20       1.0  0.30643  0.55961  0.27193  1.0000
  C   C39       1.0  0.46680  0.72109  0.31581  1.0000
  C   C40       1.0  0.46626  0.74700  0.31615  1.0000
  H   H21       1.0  0.45388  0.70549  0.27105  1.0000
  H   H22       1.0  0.45305  0.74940  0.27188  1.0000
  C   C41       1.0  0.29158  0.74797  0.31576  1.0000
  C   C42       1.0  0.26563  0.72159  0.31571  1.0000
  H   H23       1.0  0.30710  0.75078  0.27044  1.0000
  H   H24       1.0  0.26315  0.70608  0.27083  1.0000
  C   C43       1.0  0.75069  0.46418  0.31559  1.0000
  C   C44       1.0  0.72427  0.46368  0.31586  1.0000
  H   H25       1.0  0.75340  0.45130  0.27075  1.0000
  H   H26       1.0  0.70867  0.45051  0.27147  1.0000
  C   C45       1.0  0.54859  0.28913  0.31649  1.0000
  C   C46       1.0  0.54905  0.26320  0.31665  1.0000
  H   H27       1.0  0.56136  0.30466  0.27131  1.0000
  H   H28       1.0  0.56216  0.26075  0.27204  1.0000
  C   C47       1.0  0.72358  0.26180  0.31620  1.0000
  C   C48       1.0  0.74948  0.28824  0.31661  1.0000
  H   H29       1.0  0.70797  0.25912  0.27149  1.0000
  H   H30       1.0  0.75187  0.30388  0.27245  1.0000
  C   C49       1.0  0.17776  0.61696  0.31228  1.0000
  C   C50       1.0  0.19888  0.61435  0.26343  1.0000
  C   C51       1.0  0.19956  0.58843  0.26051  1.0000
  C   C52       1.0  0.17833  0.56389  0.30742  1.0000
  H   H31       1.0  0.21496  0.63194  0.23167  1.0000
  N   N7        1.0  0.22161  0.58717  0.21200  1.0000
  O   O13       1.0  0.24607  0.60457  0.24245  1.0000
  O   O14       1.0  0.22093  0.59216  0.12966  1.0000
  C   C53       1.0  0.39553  0.56336  0.31297  1.0000
  C   C54       1.0  0.39811  0.58712  0.26429  1.0000
  C   C55       1.0  0.42403  0.61371  0.26121  1.0000
  C   C56       1.0  0.44863  0.61700  0.30770  1.0000
  H   H32       1.0  0.38048  0.58563  0.23287  1.0000
  N   N8        1.0  0.42524  0.63701  0.21281  1.0000
  O   O15       1.0  0.40790  0.64410  0.24355  1.0000
  O   O16       1.0  0.42016  0.63134  0.13050  1.0000
  C   C57       1.0  0.44933  0.83476  0.31269  1.0000
  C   C58       1.0  0.42559  0.81362  0.26384  1.0000
  C   C59       1.0  0.39899  0.81293  0.26080  1.0000
  C   C60       1.0  0.39565  0.83415  0.30772  1.0000
  H   H33       1.0  0.42713  0.79755  0.23208  1.0000
  N   N9        1.0  0.37572  0.79090  0.21215  1.0000
  O   O17       1.0  0.36864  0.76643  0.24252  1.0000
  O   O18       1.0  0.38143  0.79161  0.12983  1.0000
  C   C61       1.0  0.83721  0.39292  0.31299  1.0000
  C   C62       1.0  0.81601  0.39549  0.26439  1.0000
  C   C63       1.0  0.81534  0.42142  0.26127  1.0000
  C   C64       1.0  0.83665  0.44602  0.30777  1.0000
  H   H34       1.0  0.79988  0.37786  0.23296  1.0000
  N   N10       1.0  0.79326  0.42262  0.21283  1.0000
  O   O19       1.0  0.76882  0.40528  0.24353  1.0000
  O   O20       1.0  0.79386  0.41754  0.13052  1.0000
  C   C65       1.0  0.61961  0.44679  0.31257  1.0000
  C   C66       1.0  0.61701  0.42304  0.26385  1.0000
  C   C67       1.0  0.59109  0.39645  0.26084  1.0000
  C   C68       1.0  0.56652  0.39315  0.30755  1.0000
  H   H35       1.0  0.63462  0.42454  0.23221  1.0000
  N   N11       1.0  0.58985  0.37314  0.21240  1.0000
  O   O21       1.0  0.60722  0.36606  0.24299  1.0000
  O   O22       1.0  0.59488  0.37880  0.13007  1.0000
  C   C69       1.0  0.56587  0.17539  0.31298  1.0000
  C   C70       1.0  0.58965  0.19658  0.26439  1.0000
  C   C71       1.0  0.61623  0.19724  0.26135  1.0000
  C   C72       1.0  0.61950  0.17591  0.30779  1.0000
  H   H36       1.0  0.58817  0.21273  0.23301  1.0000
  N   N12       1.0  0.63955  0.21934  0.21303  1.0000
  O   O23       1.0  0.64664  0.24376  0.24384  1.0000
  O   O24       1.0  0.63391  0.21878  0.13071  1.0000
  C   C73       1.0  0.99228  0.26240  0.29506  1.0000
  C   C74       1.0  0.02270  0.27707  0.29188  1.0000
  H   H37       1.0  0.98111  0.24535  0.25281  1.0000
  H   H38       1.0  0.03257  0.27021  0.24765  1.0000
  C   C75       1.0  0.75015  0.73238  0.29576  1.0000
  C   C76       1.0  0.73550  0.74815  0.29272  1.0000
  H   H39       1.0  0.76726  0.73832  0.25367  1.0000
  H   H40       1.0  0.74236  0.76489  0.24856  1.0000
  C   C77       1.0  0.28031  0.02034  0.29479  1.0000
  C   C78       1.0  0.26458  0.98991  0.29168  1.0000
  H   H41       1.0  0.27443  0.03150  0.25252  1.0000
  H   H42       1.0  0.24785  0.98003  0.24746  1.0000
  C   C79       1.0  0.02284  0.74759  0.29522  1.0000
  C   C80       1.0  0.99242  0.73294  0.29219  1.0000
  H   H43       1.0  0.03401  0.76470  0.25314  1.0000
  H   H44       1.0  0.98253  0.73980  0.24805  1.0000
  C   C81       1.0  0.26500  0.27778  0.29509  1.0000
  C   C82       1.0  0.27967  0.26203  0.29184  1.0000
  H   H45       1.0  0.24793  0.27190  0.25293  1.0000
  H   H46       1.0  0.27279  0.24530  0.24762  1.0000
  C   C83       1.0  0.73488  0.98979  0.29556  1.0000
  C   C84       1.0  0.75064  0.02021  0.29252  1.0000
  H   H47       1.0  0.74078  0.97862  0.25335  1.0000
  H   H48       1.0  0.76735  0.03009  0.24825  1.0000
  C   C85       1.0  0.14777  0.31026  0.28453  1.0000
  C   C86       1.0  0.17397  0.30995  0.28584  1.0000
  H   H49       1.0  0.13457  0.30168  0.22997  1.0000
  H   H50       1.0  0.17886  0.30121  0.23234  1.0000
  C   C87       1.0  0.70233  0.83999  0.28497  1.0000
  C   C88       1.0  0.70272  0.86654  0.28639  1.0000
  H   H51       1.0  0.71109  0.83544  0.23075  1.0000
  H   H52       1.0  0.71162  0.88026  0.23313  1.0000
  C   C89       1.0  0.17268  0.86492  0.28496  1.0000
  C   C90       1.0  0.14616  0.83873  0.28616  1.0000
  H   H53       1.0  0.17734  0.87814  0.23043  1.0000
  H   H54       1.0  0.13254  0.83386  0.23260  1.0000
  C   C91       1.0  0.86741  0.69979  0.28521  1.0000
  C   C92       1.0  0.84127  0.70020  0.28657  1.0000
  H   H55       1.0  0.88071  0.70850  0.23092  1.0000
  H   H56       1.0  0.83643  0.70905  0.23322  1.0000
  C   C93       1.0  0.31282  0.17012  0.28425  1.0000
  C   C94       1.0  0.31250  0.14361  0.28555  1.0000
  H   H57       1.0  0.30425  0.17476  0.22969  1.0000
  H   H58       1.0  0.30375  0.12997  0.23202  1.0000
  C   C95       1.0  0.84245  0.14522  0.28440  1.0000
  C   C96       1.0  0.86900  0.17136  0.28577  1.0000
  H   H59       1.0  0.83786  0.13192  0.23010  1.0000
  H   H60       1.0  0.88268  0.17620  0.23239  1.0000
  C   C97       1.0  0.16337  0.48936  0.34255  1.0000
  N   N13       1.0  0.15886  0.51168  0.32428  1.0000
  C   C98       1.0  0.18139  0.53929  0.32112  1.0000
  N   N14       1.0  0.20827  0.54383  0.33760  1.0000
  C   C99       1.0  0.21342  0.52219  0.35608  1.0000
  N   N15       1.0  0.19062  0.49534  0.35673  1.0000
  C   C100      1.0  0.52328  0.67645  0.34145  1.0000
  N   N16       1.0  0.50088  0.64963  0.32376  1.0000
  C   C101      1.0  0.47330  0.64463  0.32095  1.0000
  N   N17       1.0  0.46888  0.66707  0.33731  1.0000
  C   C102      1.0  0.49062  0.69386  0.35531  1.0000
  N   N18       1.0  0.51745  0.69782  0.35561  1.0000
  C   C103      1.0  0.33604  0.84905  0.34310  1.0000
  N   N19       1.0  0.36287  0.85359  0.32486  1.0000
  C   C104      1.0  0.36799  0.83107  0.32136  1.0000
  N   N20       1.0  0.34564  0.80416  0.33750  1.0000
  C   C105      1.0  0.31883  0.79897  0.35593  1.0000
  N   N21       1.0  0.31479  0.82177  0.35693  1.0000
  C   C106      1.0  0.85181  0.52066  0.34188  1.0000
  N   N22       1.0  0.85625  0.49828  0.32411  1.0000
  C   C107      1.0  0.83367  0.47069  0.32100  1.0000
  N   N23       1.0  0.80681  0.46625  0.33721  1.0000
  C   C108      1.0  0.80173  0.48797  0.35525  1.0000
  N   N24       1.0  0.82458  0.51479  0.35585  1.0000
  C   C109      1.0  0.49196  0.33360  0.34248  1.0000
  N   N25       1.0  0.51429  0.36042  0.32426  1.0000
  C   C110      1.0  0.54190  0.36550  0.32116  1.0000
  N   N26       1.0  0.54642  0.34315  0.33766  1.0000
  C   C111      1.0  0.52477  0.31635  0.35609  1.0000
  N   N27       1.0  0.49792  0.31232  0.35667  1.0000
  C   C112      1.0  0.67892  0.16067  0.34137  1.0000
  N   N28       1.0  0.65211  0.15626  0.32371  1.0000
  C   C113      1.0  0.64713  0.17886  0.32104  1.0000
  N   N29       1.0  0.66956  0.20569  0.33751  1.0000
  C   C114      1.0  0.69635  0.21072  0.35549  1.0000
  N   N30       1.0  0.70031  0.18785  0.35565  1.0000
  C   C115      1.0  0.49249  0.16174  0.36278  1.0000
  N   N31       1.0  0.51425  0.15666  0.34132  1.0000
  C   C116      1.0  0.54172  0.17892  0.32919  1.0000
  N   N32       1.0  0.54679  0.20630  0.33885  1.0000
  C   C117      1.0  0.52577  0.21207  0.36057  1.0000
  N   N33       1.0  0.49914  0.18941  0.37096  1.0000
  C   C118      1.0  0.67930  0.52019  0.36241  1.0000
  N   N34       1.0  0.65246  0.49841  0.34103  1.0000
  C   C119      1.0  0.64730  0.47097  0.32865  1.0000
  N   N35       1.0  0.66964  0.46594  0.33811  1.0000
  C   C120      1.0  0.69642  0.48697  0.35974  1.0000
  N   N36       1.0  0.70036  0.51359  0.37034  1.0000
  C   C121      1.0  0.85098  0.33329  0.36298  1.0000
  N   N37       1.0  0.85601  0.36011  0.34145  1.0000
  C   C122      1.0  0.83370  0.36524  0.32917  1.0000
  N   N38       1.0  0.80634  0.34288  0.33873  1.0000
  C   C123      1.0  0.80063  0.31612  0.36045  1.0000
  N   N39       1.0  0.82333  0.31221  0.37095  1.0000
  C   C124      1.0  0.52272  0.84850  0.36269  1.0000
  N   N40       1.0  0.50094  0.85354  0.34121  1.0000
  C   C125      1.0  0.47350  0.83124  0.32881  1.0000
  N   N41       1.0  0.46848  0.80387  0.33830  1.0000
  C   C126      1.0  0.48953  0.79815  0.35999  1.0000
  N   N42       1.0  0.51613  0.82083  0.37058  1.0000
  C   C127      1.0  0.33580  0.48998  0.36288  1.0000
  N   N43       1.0  0.36264  0.51174  0.34139  1.0000
  C   C128      1.0  0.36784  0.53920  0.32920  1.0000
  N   N44       1.0  0.34552  0.54427  0.33883  1.0000
  C   C129      1.0  0.31875  0.52325  0.36057  1.0000
  N   N45       1.0  0.31478  0.49663  0.37101  1.0000
  C   C130      1.0  0.16418  0.67675  0.36220  1.0000
  N   N46       1.0  0.15907  0.64989  0.34074  1.0000
  C   C131      1.0  0.18131  0.64467  0.32839  1.0000
  N   N47       1.0  0.20871  0.66695  0.33798  1.0000
  C   C132      1.0  0.21450  0.69374  0.35969  1.0000
  N   N48       1.0  0.19187  0.69776  0.37024  1.0000
  C   C133      1.0  0.11870  0.33153  0.33748  1.0000
  N   N49       1.0  0.08983  0.31196  0.33698  1.0000
  C   C134      1.0  0.06977  0.32060  0.33255  1.0000
  N   N50       1.0  0.07948  0.34933  0.32908  1.0000
  C   C135      1.0  0.10771  0.36919  0.32828  1.0000
  N   N51       1.0  0.12681  0.35986  0.33466  1.0000
  C   C136      1.0  0.68096  0.78961  0.33774  1.0000
  N   N52       1.0  0.70055  0.78034  0.33762  1.0000
  C   C137      1.0  0.69194  0.75165  0.33334  1.0000
  N   N53       1.0  0.66323  0.73260  0.32954  1.0000
  C   C138      1.0  0.64335  0.74096  0.32828  1.0000
  N   N54       1.0  0.65263  0.76937  0.33452  1.0000
  C   C139      1.0  0.22300  0.89394  0.33820  1.0000
  N   N55       1.0  0.23232  0.92281  0.33719  1.0000
  C   C140      1.0  0.26103  0.94285  0.33275  1.0000
  N   N56       1.0  0.28004  0.93313  0.32945  1.0000
  C   C141      1.0  0.27165  0.90489  0.32905  1.0000
  N   N57       1.0  0.24323  0.88582  0.33554  1.0000
  C   C142      1.0  0.89642  0.67844  0.33828  1.0000
  N   N58       1.0  0.92529  0.69802  0.33756  1.0000
  C   C143      1.0  0.94537  0.68940  0.33296  1.0000
  N   N59       1.0  0.93567  0.66067  0.32944  1.0000
  C   C144      1.0  0.90744  0.64080  0.32870  1.0000
  N   N60       1.0  0.88833  0.65011  0.33520  1.0000
  C   C145      1.0  0.33411  0.22046  0.33725  1.0000
  N   N61       1.0  0.31455  0.22977  0.33677  1.0000
  C   C146      1.0  0.32320  0.25848  0.33236  1.0000
  N   N62       1.0  0.35193  0.27748  0.32891  1.0000
  C   C147      1.0  0.37179  0.26910  0.32809  1.0000
  N   N63       1.0  0.36245  0.24068  0.33444  1.0000
  C   C148      1.0  0.79212  0.11621  0.33745  1.0000
  N   N64       1.0  0.78285  0.08735  0.33743  1.0000
  C   C149      1.0  0.75416  0.06725  0.33328  1.0000
  N   N65       1.0  0.73511  0.07692  0.32952  1.0000
  C   C150      1.0  0.74346  0.10514  0.32815  1.0000
  N   N66       1.0  0.77187  0.12429  0.33426  1.0000
  C   C151      1.0  0.33350  0.11469  0.34587  1.0000
  N   N67       1.0  0.31439  0.08572  0.34233  1.0000
  C   C152      1.0  0.32355  0.06600  0.34277  1.0000
  N   N68       1.0  0.35240  0.07629  0.34573  1.0000
  C   C153      1.0  0.37195  0.10460  0.34950  1.0000
  N   N69       1.0  0.36185  0.12312  0.35090  1.0000
  C   C154      1.0  0.79130  0.67917  0.34682  1.0000
  N   N70       1.0  0.78146  0.69829  0.34330  1.0000
  C   C155      1.0  0.75257  0.68914  0.34356  1.0000
  N   N71       1.0  0.73401  0.66029  0.34638  1.0000
  C   C156      1.0  0.74275  0.64072  0.35007  1.0000
  N   N72       1.0  0.77138  0.65082  0.35158  1.0000
  C   C157      1.0  0.89794  0.22132  0.34587  1.0000
  N   N73       1.0  0.92690  0.23115  0.34250  1.0000
  C   C158      1.0  0.94665  0.26003  0.34286  1.0000
  N   N74       1.0  0.93638  0.27861  0.34579  1.0000
  C   C159      1.0  0.90808  0.26987  0.34943  1.0000
  N   N75       1.0  0.88953  0.24125  0.35086  1.0000
  C   C160      1.0  0.68164  0.89543  0.34649  1.0000
  N   N76       1.0  0.70078  0.92439  0.34310  1.0000
  C   C161      1.0  0.69166  0.94414  0.34343  1.0000
  N   N77       1.0  0.66280  0.93388  0.34630  1.0000
  C   C162      1.0  0.64322  0.90558  0.34988  1.0000
  N   N78       1.0  0.65329  0.88702  0.35132  1.0000
  C   C163      1.0  0.22389  0.33098  0.34621  1.0000
  N   N79       1.0  0.23375  0.31187  0.34265  1.0000
  C   C164      1.0  0.26263  0.32103  0.34312  1.0000
  N   N80       1.0  0.28119  0.34989  0.34607  1.0000
  C   C165      1.0  0.27242  0.36943  0.34985  1.0000
  N   N81       1.0  0.24380  0.35933  0.35123  1.0000
  C   C166      1.0  0.11720  0.78879  0.34642  1.0000
  N   N82       1.0  0.08823  0.77893  0.34285  1.0000
  C   C167      1.0  0.06851  0.75005  0.34310  1.0000
  N   N83       1.0  0.07882  0.73149  0.34599  1.0000
  C   C168      1.0  0.10713  0.74025  0.34974  1.0000
  N   N84       1.0  0.12564  0.76888  0.35125  1.0000
  C   C169      1.0  0.13001  0.41346  0.41416  1.0000
  C   C170      1.0  0.14259  0.44340  0.41972  1.0000
  H   H61       1.0  0.13169  0.40262  0.46835  1.0000
  H   H62       1.0  0.15357  0.45340  0.47718  1.0000
  C   C171      1.0  0.59908  0.71810  0.41423  1.0000
  C   C172      1.0  0.56913  0.70070  0.41944  1.0000
  H   H63       1.0  0.60994  0.73001  0.46940  1.0000
  H   H64       1.0  0.55909  0.70108  0.47757  1.0000
  C   C173      1.0  0.29295  0.88184  0.41447  1.0000
  C   C174      1.0  0.31028  0.86924  0.42014  1.0000
  H   H65       1.0  0.28003  0.87972  0.46797  1.0000
  H   H66       1.0  0.30887  0.85780  0.47693  1.0000
  C   C175      1.0  0.88544  0.59649  0.41442  1.0000
  C   C176      1.0  0.87290  0.56655  0.41973  1.0000
  H   H67       1.0  0.88399  0.60731  0.46905  1.0000
  H   H68       1.0  0.86209  0.55650  0.47737  1.0000
  C   C177      1.0  0.41605  0.29107  0.41402  1.0000
  C   C178      1.0  0.44599  0.30844  0.41961  1.0000
  H   H69       1.0  0.40521  0.27856  0.46821  1.0000
  H   H70       1.0  0.45598  0.30746  0.47708  1.0000
  C   C179      1.0  0.72038  0.12632  0.41420  1.0000
  C   C180      1.0  0.70297  0.13885  0.41937  1.0000
  H   H71       1.0  0.73215  0.12722  0.46956  1.0000
  H   H72       1.0  0.70320  0.14913  0.47769  1.0000
  C   C181      1.0  0.46279  0.14145  0.37290  1.0000
  C   C182      1.0  0.44692  0.14664  0.43885  1.0000
  C   C183      1.0  0.41678  0.13406  0.43410  1.0000
  C   C184      1.0  0.40162  0.11471  0.36298  1.0000
  H   H73       1.0  0.45758  0.16167  0.48788  1.0000
  N   N85       1.0  0.40194  0.14133  0.49829  1.0000
  O   O25       1.0  0.41014  0.16769  0.49648  1.0000
  O   O26       1.0  0.40515  0.13468  0.57678  1.0000
  C   C185      1.0  0.68865  0.54986  0.37282  1.0000
  C   C186      1.0  0.70966  0.56569  0.43898  1.0000
  C   C187      1.0  0.72729  0.59582  0.43437  1.0000
  C   C188      1.0  0.72316  0.61105  0.36331  1.0000
  H   H74       1.0  0.71404  0.55498  0.48784  1.0000
  N   N86       1.0  0.74937  0.61059  0.49866  1.0000
  O   O27       1.0  0.76749  0.60235  0.49687  1.0000
  O   O28       1.0  0.73947  0.60736  0.57712  1.0000
  C   C189      1.0  0.87131  0.32395  0.37305  1.0000
  C   C190      1.0  0.86616  0.30290  0.43905  1.0000
  C   C191      1.0  0.87870  0.28531  0.43424  1.0000
  C   C192      1.0  0.89799  0.28945  0.36298  1.0000
  H   H75       1.0  0.85117  0.29856  0.48817  1.0000
  N   N87       1.0  0.87145  0.26322  0.49846  1.0000
  O   O29       1.0  0.84509  0.24509  0.49683  1.0000
  O   O30       1.0  0.87816  0.27310  0.57692  1.0000
  C   C193      1.0  0.55240  0.86884  0.37288  1.0000
  C   C194      1.0  0.56822  0.86365  0.43907  1.0000
  C   C195      1.0  0.59835  0.87617  0.43435  1.0000
  C   C196      1.0  0.61355  0.89550  0.36323  1.0000
  H   H76       1.0  0.55753  0.84859  0.48798  1.0000
  N   N88       1.0  0.61314  0.86887  0.49862  1.0000
  O   O31       1.0  0.60489  0.84251  0.49688  1.0000
  O   O32       1.0  0.60994  0.87555  0.57708  1.0000
  C   C197      1.0  0.32640  0.46029  0.37307  1.0000
  C   C198      1.0  0.30533  0.44442  0.43902  1.0000
  C   C199      1.0  0.28778  0.41428  0.43434  1.0000
  C   C200      1.0  0.29198  0.39911  0.36328  1.0000
  H   H77       1.0  0.30096  0.45509  0.48802  1.0000
  N   N89       1.0  0.26567  0.39945  0.49852  1.0000
  O   O33       1.0  0.24751  0.40764  0.49664  1.0000
  O   O34       1.0  0.27553  0.40269  0.57703  1.0000
  C   C201      1.0  0.14389  0.68614  0.37247  1.0000
  C   C202      1.0  0.14917  0.70723  0.43847  1.0000
  C   C203      1.0  0.13666  0.72486  0.43387  1.0000
  C   C204      1.0  0.11724  0.72068  0.36298  1.0000
  H   H78       1.0  0.16428  0.71163  0.48725  1.0000
  N   N90       1.0  0.14403  0.74698  0.49804  1.0000
  O   O35       1.0  0.17039  0.76510  0.49599  1.0000
  O   O36       1.0  0.13744  0.73715  0.57659  1.0000
  C   C205      1.0  0.29470  0.52708  0.37047  1.0000
  C   C206      1.0  0.27224  0.50885  0.42915  1.0000
  C   C207      1.0  0.24560  0.50795  0.42953  1.0000
  C   C208      1.0  0.24122  0.52607  0.36987  1.0000
  H   H79       1.0  0.27467  0.49499  0.47053  1.0000
  N   N91       1.0  0.22344  0.48876  0.48808  1.0000
  O   O37       1.0  0.21609  0.46304  0.47201  1.0000
  O   O38       1.0  0.23065  0.49406  0.56937  1.0000
  C   C209      1.0  0.48578  0.77029  0.36975  1.0000
  C   C210      1.0  0.50412  0.76611  0.42806  1.0000
  C   C211      1.0  0.50504  0.74038  0.42833  1.0000
  C   C212      1.0  0.48682  0.71782  0.36897  1.0000
  H   H80       1.0  0.51807  0.78243  0.46918  1.0000
  N   N92       1.0  0.52432  0.73744  0.48656  1.0000
  O   O39       1.0  0.55002  0.75577  0.47005  1.0000
  O   O40       1.0  0.51916  0.73942  0.56794  1.0000
  C   C213      1.0  0.24239  0.71774  0.36970  1.0000
  C   C214      1.0  0.24666  0.74013  0.42877  1.0000
  C   C215      1.0  0.27243  0.76675  0.42936  1.0000
  C   C216      1.0  0.29492  0.77117  0.36956  1.0000
  H   H81       1.0  0.23038  0.73767  0.47026  1.0000
  N   N93       1.0  0.27543  0.78885  0.48825  1.0000
  O   O41       1.0  0.25706  0.79622  0.47253  1.0000
  O   O42       1.0  0.27354  0.78153  0.56943  1.0000
  C   C217      1.0  0.72049  0.48318  0.36954  1.0000
  C   C218      1.0  0.74299  0.50146  0.42806  1.0000
  C   C219      1.0  0.76962  0.50235  0.42839  1.0000
  C   C220      1.0  0.77396  0.48416  0.36892  1.0000
  H   H82       1.0  0.74060  0.51539  0.46924  1.0000
  N   N94       1.0  0.79181  0.52158  0.48679  1.0000
  O   O43       1.0  0.79918  0.54729  0.47048  1.0000
  O   O44       1.0  0.78463  0.51636  0.56812  1.0000
  C   C221      1.0  0.52960  0.23994  0.37048  1.0000
  C   C222      1.0  0.51136  0.24417  0.42911  1.0000
  C   C223      1.0  0.51048  0.26992  0.42950  1.0000
  C   C224      1.0  0.52862  0.29243  0.36989  1.0000
  H   H83       1.0  0.49749  0.22788  0.47045  1.0000
  N   N95       1.0  0.49128  0.27289  0.48800  1.0000
  O   O45       1.0  0.46557  0.25454  0.47186  1.0000
  O   O46       1.0  0.49656  0.27097  0.56930  1.0000
  C   C225      1.0  0.77278  0.29200  0.37015  1.0000
  C   C226      1.0  0.76861  0.26944  0.42831  1.0000
  C   C227      1.0  0.74288  0.24278  0.42850  1.0000
  C   C228      1.0  0.72032  0.23848  0.36922  1.0000
  H   H84       1.0  0.78494  0.27181  0.46938  1.0000
  N   N96       1.0  0.73995  0.22054  0.48660  1.0000
  O   O47       1.0  0.75828  0.21319  0.46995  1.0000
  O   O48       1.0  0.74194  0.22765  0.56801  1.0000
  C   C229      1.0  0.15593  0.56586  0.35080  1.0000
  C   C230      1.0  0.15567  0.59195  0.35333  1.0000
  H   H85       1.0  0.14083  0.54893  0.38748  1.0000
  H   H86       1.0  0.14041  0.59303  0.39147  1.0000
  C   C231      1.0  0.44667  0.59262  0.35100  1.0000
  C   C232      1.0  0.42058  0.56626  0.35364  1.0000
  H   H87       1.0  0.46367  0.59440  0.38713  1.0000
  H   H88       1.0  0.41954  0.54989  0.39152  1.0000
  C   C233      1.0  0.42000  0.85655  0.35114  1.0000
  C   C234      1.0  0.44637  0.85683  0.35374  1.0000
  H   H89       1.0  0.41816  0.87164  0.38781  1.0000
  H   H90       1.0  0.46270  0.87210  0.39189  1.0000
  C   C235      1.0  0.85906  0.44407  0.35106  1.0000
  C   C236      1.0  0.85935  0.41798  0.35368  1.0000
  H   H91       1.0  0.87429  0.46108  0.38718  1.0000
  H   H92       1.0  0.87469  0.41695  0.39154  1.0000
  C   C237      1.0  0.56848  0.41753  0.35082  1.0000
  C   C238      1.0  0.59458  0.44388  0.35344  1.0000
  H   H93       1.0  0.55153  0.41571  0.38736  1.0000
  H   H94       1.0  0.59563  0.46023  0.39146  1.0000
  C   C239      1.0  0.59511  0.15348  0.35100  1.0000
  C   C240      1.0  0.56876  0.15322  0.35360  1.0000
  H   H95       1.0  0.59688  0.13824  0.38708  1.0000
  H   H96       1.0  0.55237  0.13788  0.39142  1.0000
  C   C241      1.0  0.03938  0.30231  0.34268  1.0000
  C   C242      1.0  0.02435  0.31099  0.40099  1.0000
  C   C243      1.0  0.99401  0.29652  0.40548  1.0000
  C   C244      1.0  0.97728  0.27231  0.34917  1.0000
  H   H97       1.0  0.03565  0.32872  0.44080  1.0000
  N   N97       1.0  0.98052  0.30628  0.46689  1.0000
  O   O49       1.0  0.98648  0.33158  0.45040  1.0000
  O   O50       1.0  0.98711  0.30484  0.54715  1.0000
  C   C245      1.0  0.71027  0.73959  0.34356  1.0000
  C   C246      1.0  0.70156  0.71583  0.40171  1.0000
  C   C247      1.0  0.71604  0.69996  0.40612  1.0000
  C   C248      1.0  0.74027  0.70747  0.34986  1.0000
  H   H98       1.0  0.68382  0.70937  0.44144  1.0000
  N   N98       1.0  0.70627  0.67670  0.46744  1.0000
  O   O51       1.0  0.68097  0.65735  0.45088  1.0000
  O   O52       1.0  0.70769  0.68469  0.54773  1.0000
  C   C249      1.0  0.27314  0.97326  0.34255  1.0000
  C   C250      1.0  0.29684  0.98831  0.40091  1.0000
  C   C251      1.0  0.31269  0.01864  0.40536  1.0000
  C   C252      1.0  0.30522  0.03536  0.34892  1.0000
  H   H99       1.0  0.30325  0.97703  0.44085  1.0000
  N   N99       1.0  0.33590  0.03215  0.46687  1.0000
  O   O53       1.0  0.35527  0.02620  0.45056  1.0000
  O   O54       1.0  0.32784  0.02557  0.54710  1.0000
  C   C253      1.0  0.97576  0.70771  0.34305  1.0000
  C   C254      1.0  0.99081  0.69902  0.40124  1.0000
  C   C255      1.0  0.02115  0.71350  0.40565  1.0000
  C   C256      1.0  0.03787  0.73773  0.34935  1.0000
  H   H100      1.0  0.97953  0.68129  0.44103  1.0000
  N   N100      1.0  0.03466  0.70376  0.46703  1.0000
  O   O55       1.0  0.02871  0.67846  0.45054  1.0000
  O   O56       1.0  0.02809  0.70519  0.54731  1.0000
  C   C257      1.0  0.30492  0.27058  0.34255  1.0000
  C   C258      1.0  0.31363  0.29430  0.40086  1.0000
  C   C259      1.0  0.29916  0.31017  0.40544  1.0000
  C   C260      1.0  0.27494  0.30270  0.34917  1.0000
  H   H101      1.0  0.33136  0.30072  0.44064  1.0000
  N   N101      1.0  0.30893  0.33340  0.46689  1.0000
  O   O57       1.0  0.33423  0.35275  0.45039  1.0000
  O   O58       1.0  0.30750  0.32537  0.54713  1.0000
  C   C261      1.0  0.74212  0.03688  0.34352  1.0000
  C   C262      1.0  0.71840  0.02183  0.40181  1.0000
  C   C263      1.0  0.70253  0.99149  0.40622  1.0000
  C   C264      1.0  0.71001  0.97477  0.34983  1.0000
  H   H102      1.0  0.71196  0.03311  0.44163  1.0000
  N   N102      1.0  0.67930  0.97798  0.46765  1.0000
  O   O59       1.0  0.65995  0.98394  0.45126  1.0000
  O   O60       1.0  0.68733  0.98455  0.54791  1.0000
  C   C265      1.0  0.19464  0.32431  0.35404  1.0000
  C   C266      1.0  0.18730  0.33764  0.42303  1.0000
  C   C267      1.0  0.16139  0.33848  0.42212  1.0000
  C   C268      1.0  0.14131  0.32512  0.35090  1.0000
  H   H103      1.0  0.20184  0.34851  0.47303  1.0000
  N   N103      1.0  0.15586  0.35356  0.49028  1.0000
  O   O61       1.0  0.17454  0.37975  0.49127  1.0000
  O   O62       1.0  0.15479  0.34318  0.56693  1.0000
  C   C269      1.0  0.68826  0.87281  0.35432  1.0000
  C   C270      1.0  0.67477  0.85208  0.42308  1.0000
  C   C271      1.0  0.67386  0.82529  0.42208  1.0000
  C   C272      1.0  0.68733  0.81862  0.35106  1.0000
  H   H104      1.0  0.66379  0.85570  0.47283  1.0000
  N   N104      1.0  0.65864  0.80463  0.48996  1.0000
  O   O63       1.0  0.63244  0.79713  0.49047  1.0000
  O   O64       1.0  0.66887  0.81384  0.56681  1.0000
  C   C273      1.0  0.13978  0.81803  0.35433  1.0000
  C   C274      1.0  0.16042  0.82534  0.42341  1.0000
  C   C275      1.0  0.18719  0.85123  0.42261  1.0000
  C   C276      1.0  0.19397  0.87133  0.35139  1.0000
  H   H105      1.0  0.15671  0.81078  0.47339  1.0000
  N   N105      1.0  0.20776  0.85672  0.49086  1.0000
  O   O65       1.0  0.21522  0.83800  0.49193  1.0000
  O   O66       1.0  0.19844  0.85780  0.56745  1.0000
  C   C277      1.0  0.82055  0.68583  0.35464  1.0000
  C   C278      1.0  0.82780  0.67236  0.42345  1.0000
  C   C279      1.0  0.85366  0.67142  0.42249  1.0000
  C   C280      1.0  0.87381  0.68485  0.35146  1.0000
  H   H106      1.0  0.81320  0.66141  0.47325  1.0000
  N   N106      1.0  0.85909  0.65623  0.49050  1.0000
  O   O67       1.0  0.84038  0.63004  0.49114  1.0000
  O   O68       1.0  0.86013  0.66651  0.56728  1.0000
  C   C281      1.0  0.32684  0.13727  0.35374  1.0000
  C   C282      1.0  0.34017  0.15793  0.42275  1.0000
  C   C283      1.0  0.34103  0.18469  0.42186  1.0000
  C   C284      1.0  0.32769  0.19144  0.35064  1.0000
  H   H107      1.0  0.35104  0.15426  0.47275  1.0000
  N   N107      1.0  0.35612  0.20530  0.49003  1.0000
  O   O69       1.0  0.38231  0.21280  0.49102  1.0000
  O   O70       1.0  0.34574  0.19599  0.56667  1.0000
  C   C285      1.0  0.87536  0.19208  0.35386  1.0000
  C   C286      1.0  0.85464  0.18483  0.42268  1.0000
  C   C287      1.0  0.82784  0.15896  0.42175  1.0000
  C   C288      1.0  0.82113  0.13884  0.35067  1.0000
  H   H108      1.0  0.85830  0.19942  0.47250  1.0000
  N   N108      1.0  0.80721  0.15352  0.48974  1.0000
  O   O71       1.0  0.79973  0.17222  0.49039  1.0000
  O   O72       1.0  0.81646  0.15248  0.56652  1.0000
