data_image0
_chemical_formula_structural       C2H2C4HCOH3C2H2C4HCOH3C2H2C4HCOH3C2H2C4HCOH3C6H3COH3C6H3COH3C6H3COH3C6H3COH3C6H3COH3C6H3COH3C6H3COH3C6H3COH3C2H2C4HCOH3C2H2C4HCOH3C2H2C4HCOH3C2H2C4HCOH3C6H3COH3C6H3COH3C6H3COH3C6H3COH3C2H2C4HCOH3C2H2C4HCOH3C2H2C4HCOH3C2H2C4HCOH3C6H3COH3C6H3COH3C2H2C4HCOH3C2H2C4HCOH3C2H2C4HCOH3C2H2C4HCOH3C6H3COH3C6H3COH3C6H3COH3C6H3COH3C6H3COH3C6H3COH3C6H3COH3C6H3COH3C2H2C4HCOH3C2H2C4HCOH3C2H2C4HCOH3C2H2C4HCOH3C6H3C6H3C6H3C6H3C6H3C6H3C6H3C6H3C6H3C6H3C6H3C6H3C6H3C6H3C6H3C6H3C6H3C6H3C6H3C6H3C6H3C6H3C6H3C6H3C6H3C6H3C6H3C6H3C6H3COH3C6H3COH3C6H3COH3C6H3COH3C2H2C4HCOH3C2H2C4HCOH3C2H2C4HCOH3C2H2C4HCOH3C2H2C4HCOH3C2H2C4HCOH3C2H2C4HCOH3C2H2C4HCOH3C6H3COH3C6H3COH3C6H3COH3C6H3COH3C2H2C4HCOH3C2H2C4HCOH3C2H2C4HCOH3C2H2C4HCOH3C6H3COH3C6H3COH3C6H3COH3C6H3COH3C2H2C4HCOH3C2H2C4HCOH3C6H3COH3C6H3COH3C6H3COH3C6H3COH3C2H2C4HCOH3C2H2C4HCOH3C2H2C4HCOH3C2H2C4HCOH3C2H2C4HCOH3C2H2C4HCOH3C2H2C4HCOH3C2H2C4HCOH3C6H3COH3C6H3COH3C6H3COH3C6H3COH3
_chemical_formula_sum              "C756 H588 O84"
_cell_length_a       78.4674
_cell_length_b       78.4674
_cell_length_c       14.8774
_cell_angle_alpha    90
_cell_angle_beta     90
_cell_angle_gamma    90

_space_group_name_H-M_alt    "P 1"
_space_group_IT_number       1

loop_
  _space_group_symop_operation_xyz
  'x, y, z'

loop_
  _atom_site_type_symbol
  _atom_site_label
  _atom_site_symmetry_multiplicity
  _atom_site_fract_x
  _atom_site_fract_y
  _atom_site_fract_z
  _atom_site_occupancy
  C   C1        1.0  0.14736  0.16139  0.28901  1.0000
  C   C2        1.0  0.15965  0.17437  0.28946  1.0000
  H   H1        1.0  0.13756  0.16209  0.24368  1.0000
  H   H2        1.0  0.15856  0.18407  0.24379  1.0000
  C   C3        1.0  0.13606  0.13458  0.34285  1.0000
  C   C4        1.0  0.11024  0.10920  0.34039  1.0000
  C   C5        1.0  0.12404  0.10863  0.27919  1.0000
  C   C6        1.0  0.13718  0.12100  0.27966  1.0000
  H   H3        1.0  0.12434  0.09910  0.23238  1.0000
  C   C7        1.0  0.15177  0.11984  0.21506  1.0000
  O   O1        1.0  0.15242  0.10501  0.15884  1.0000
  H   H4        1.0  0.16380  0.12066  0.25200  1.0000
  H   H5        1.0  0.15110  0.13080  0.17000  1.0000
  H   H6        1.0  0.15518  0.09512  0.19696  1.0000
  C   C8        1.0  0.86084  0.84687  0.28916  1.0000
  C   C9        1.0  0.84855  0.83389  0.28963  1.0000
  H   H7        1.0  0.87065  0.84615  0.24387  1.0000
  H   H8        1.0  0.84963  0.82420  0.24393  1.0000
  C   C10       1.0  0.87215  0.87368  0.34298  1.0000
  C   C11       1.0  0.89800  0.89903  0.34046  1.0000
  C   C12       1.0  0.88419  0.89961  0.27927  1.0000
  C   C13       1.0  0.87105  0.88725  0.27975  1.0000
  H   H9        1.0  0.88391  0.90914  0.23242  1.0000
  C   C14       1.0  0.85646  0.88841  0.21514  1.0000
  O   O2        1.0  0.85582  0.90324  0.15889  1.0000
  H   H10       1.0  0.84443  0.88761  0.25207  1.0000
  H   H11       1.0  0.85713  0.87746  0.17010  1.0000
  H   H12       1.0  0.85307  0.91314  0.19698  1.0000
  C   C15       1.0  0.84687  0.14739  0.28911  1.0000
  C   C16       1.0  0.83389  0.15968  0.28959  1.0000
  H   H13       1.0  0.84615  0.13758  0.24379  1.0000
  H   H14       1.0  0.82419  0.15859  0.24393  1.0000
  C   C17       1.0  0.87367  0.13607  0.34291  1.0000
  C   C18       1.0  0.89904  0.11024  0.34043  1.0000
  C   C19       1.0  0.89961  0.12404  0.27923  1.0000
  C   C20       1.0  0.88726  0.13719  0.27972  1.0000
  H   H15       1.0  0.90915  0.12433  0.23243  1.0000
  C   C21       1.0  0.88842  0.15177  0.21514  1.0000
  O   O3        1.0  0.90325  0.15242  0.15891  1.0000
  H   H16       1.0  0.88761  0.16381  0.25208  1.0000
  H   H17       1.0  0.87747  0.15111  0.17008  1.0000
  H   H18       1.0  0.91314  0.15517  0.19702  1.0000
  C   C22       1.0  0.16138  0.86086  0.28906  1.0000
  C   C23       1.0  0.17437  0.84857  0.28950  1.0000
  H   H19       1.0  0.16209  0.87066  0.24376  1.0000
  H   H20       1.0  0.18406  0.84966  0.24378  1.0000
  C   C24       1.0  0.13458  0.87215  0.34292  1.0000
  C   C25       1.0  0.10921  0.89799  0.34043  1.0000
  C   C26       1.0  0.10864  0.88418  0.27924  1.0000
  C   C27       1.0  0.12100  0.87104  0.27970  1.0000
  H   H21       1.0  0.09911  0.88390  0.23238  1.0000
  C   C28       1.0  0.11984  0.85646  0.21508  1.0000
  O   O4        1.0  0.10501  0.85581  0.15884  1.0000
  H   H22       1.0  0.12066  0.84443  0.25200  1.0000
  H   H23       1.0  0.13080  0.85713  0.17004  1.0000
  H   H24       1.0  0.09512  0.85306  0.19694  1.0000
  C   C29       1.0  0.09351  0.04852  0.32242  1.0000
  C   C30       1.0  0.08530  0.03810  0.25814  1.0000
  C   C31       1.0  0.08660  0.02014  0.26010  1.0000
  C   C32       1.0  0.09684  0.01251  0.32821  1.0000
  C   C33       1.0  0.10634  0.98402  0.28869  1.0000
  C   C34       1.0  0.10425  0.96626  0.29143  1.0000
  H   H25       1.0  0.11435  0.98913  0.24143  1.0000
  H   H26       1.0  0.11070  0.95893  0.24577  1.0000
  H   H27       1.0  0.07746  0.04369  0.21151  1.0000
  C   C35       1.0  0.07620  0.01045  0.19337  1.0000
  O   O5        1.0  0.08229  0.01407  0.10467  1.0000
  H   H28       1.0  0.07669  0.99670  0.20405  1.0000
  H   H29       1.0  0.06285  0.01432  0.19948  1.0000
  H   H30       1.0  0.07498  0.00791  0.06180  1.0000
  C   C36       1.0  0.91477  0.95970  0.32230  1.0000
  C   C37       1.0  0.92299  0.97010  0.25799  1.0000
  C   C38       1.0  0.92169  0.98807  0.25990  1.0000
  C   C39       1.0  0.91143  0.99571  0.32790  1.0000
  C   C40       1.0  0.90193  0.02420  0.28836  1.0000
  C   C41       1.0  0.90399  0.04197  0.29132  1.0000
  H   H31       1.0  0.89390  0.01910  0.24123  1.0000
  H   H32       1.0  0.89754  0.04930  0.24568  1.0000
  H   H33       1.0  0.93083  0.96451  0.21143  1.0000
  C   C42       1.0  0.93208  0.99776  0.19312  1.0000
  O   O6        1.0  0.92600  0.99411  0.10445  1.0000
  H   H34       1.0  0.93158  0.01151  0.20373  1.0000
  H   H35       1.0  0.94543  0.99390  0.19926  1.0000
  H   H36       1.0  0.93330  0.00027  0.06154  1.0000
  C   C43       1.0  0.95972  0.09348  0.32246  1.0000
  C   C44       1.0  0.97012  0.08527  0.25816  1.0000
  C   C45       1.0  0.98809  0.08657  0.26011  1.0000
  C   C46       1.0  0.99572  0.09681  0.32821  1.0000
  C   C47       1.0  0.02421  0.10631  0.28866  1.0000
  C   C48       1.0  0.04197  0.10422  0.29139  1.0000
  H   H37       1.0  0.01910  0.11431  0.24139  1.0000
  H   H38       1.0  0.04930  0.11067  0.24573  1.0000
  H   H39       1.0  0.96454  0.07743  0.21153  1.0000
  C   C49       1.0  0.99778  0.07616  0.19339  1.0000
  O   O7        1.0  0.99415  0.08225  0.10469  1.0000
  H   H40       1.0  0.01153  0.07665  0.20405  1.0000
  H   H41       1.0  0.99391  0.06281  0.19950  1.0000
  H   H42       1.0  0.00031  0.07494  0.06181  1.0000
  C   C50       1.0  0.04853  0.91474  0.32230  1.0000
  C   C51       1.0  0.03813  0.92296  0.25797  1.0000
  C   C52       1.0  0.02017  0.92165  0.25987  1.0000
  C   C53       1.0  0.01253  0.91139  0.32788  1.0000
  C   C54       1.0  0.98403  0.90190  0.28838  1.0000
  C   C55       1.0  0.96627  0.90396  0.29133  1.0000
  H   H43       1.0  0.98914  0.89386  0.24126  1.0000
  H   H44       1.0  0.95893  0.89751  0.24571  1.0000
  H   H45       1.0  0.04372  0.93080  0.21141  1.0000
  C   C56       1.0  0.01048  0.93204  0.19308  1.0000
  O   O8        1.0  0.01413  0.92595  0.10441  1.0000
  H   H46       1.0  0.99673  0.93153  0.20368  1.0000
  H   H47       1.0  0.01434  0.94539  0.19921  1.0000
  H   H48       1.0  0.00797  0.93325  0.06149  1.0000
  C   C57       1.0  0.18926  0.23459  0.35184  1.0000
  C   C58       1.0  0.19604  0.24669  0.29111  1.0000
  C   C59       1.0  0.19065  0.26396  0.29054  1.0000
  C   C60       1.0  0.17796  0.26925  0.35317  1.0000
  C   C61       1.0  0.15943  0.29221  0.30110  1.0000
  C   C62       1.0  0.15417  0.30936  0.30123  1.0000
  H   H49       1.0  0.15421  0.28408  0.25483  1.0000
  H   H50       1.0  0.14553  0.31330  0.25408  1.0000
  H   H51       1.0  0.20494  0.24280  0.24511  1.0000
  C   C63       1.0  0.19883  0.27560  0.22412  1.0000
  O   O9        1.0  0.19428  0.27037  0.13510  1.0000
  H   H52       1.0  0.19502  0.28887  0.23333  1.0000
  H   H53       1.0  0.21267  0.27502  0.23253  1.0000
  H   H54       1.0  0.20013  0.27799  0.09253  1.0000
  C   C64       1.0  0.81888  0.77371  0.35205  1.0000
  C   C65       1.0  0.81211  0.76160  0.29131  1.0000
  C   C66       1.0  0.81749  0.74434  0.29081  1.0000
  C   C67       1.0  0.83016  0.73904  0.35352  1.0000
  C   C68       1.0  0.84870  0.71606  0.30180  1.0000
  C   C69       1.0  0.85396  0.69891  0.30218  1.0000
  H   H55       1.0  0.85397  0.72419  0.25566  1.0000
  H   H56       1.0  0.86262  0.69496  0.25516  1.0000
  H   H57       1.0  0.80322  0.76550  0.24524  1.0000
  C   C70       1.0  0.80932  0.73269  0.22435  1.0000
  O   O10       1.0  0.81389  0.73792  0.13536  1.0000
  H   H58       1.0  0.81313  0.71942  0.23359  1.0000
  H   H59       1.0  0.79548  0.73327  0.23269  1.0000
  H   H60       1.0  0.80805  0.73030  0.09276  1.0000
  C   C71       1.0  0.77369  0.18931  0.35212  1.0000
  C   C72       1.0  0.76158  0.19609  0.29140  1.0000
  C   C73       1.0  0.74432  0.19072  0.29092  1.0000
  C   C74       1.0  0.73902  0.17804  0.35365  1.0000
  C   C75       1.0  0.71603  0.15951  0.30193  1.0000
  C   C76       1.0  0.69888  0.15427  0.30220  1.0000
  H   H61       1.0  0.72416  0.15425  0.25574  1.0000
  H   H62       1.0  0.69493  0.14561  0.25520  1.0000
  H   H63       1.0  0.76548  0.20499  0.24534  1.0000
  C   C77       1.0  0.73267  0.19889  0.22449  1.0000
  O   O11       1.0  0.73789  0.19432  0.13548  1.0000
  H   H64       1.0  0.71940  0.19509  0.23375  1.0000
  H   H65       1.0  0.73325  0.21273  0.23284  1.0000
  H   H66       1.0  0.73027  0.20017  0.09290  1.0000
  C   C78       1.0  0.23458  0.81893  0.35175  1.0000
  C   C79       1.0  0.24668  0.81215  0.29100  1.0000
  C   C80       1.0  0.26394  0.81754  0.29043  1.0000
  C   C81       1.0  0.26923  0.83024  0.35303  1.0000
  C   C82       1.0  0.29219  0.84877  0.30093  1.0000
  C   C83       1.0  0.30933  0.85406  0.30117  1.0000
  H   H67       1.0  0.28404  0.85400  0.25473  1.0000
  H   H68       1.0  0.31326  0.86270  0.25399  1.0000
  H   H69       1.0  0.24279  0.80325  0.24499  1.0000
  C   C84       1.0  0.27559  0.80937  0.22398  1.0000
  O   O12       1.0  0.27035  0.81392  0.13498  1.0000
  H   H70       1.0  0.28885  0.81319  0.23319  1.0000
  H   H71       1.0  0.27501  0.79553  0.23238  1.0000
  H   H72       1.0  0.27797  0.80808  0.09239  1.0000
  C   C85       1.0  0.83699  0.25658  0.27464  1.0000
  C   C86       1.0  0.83135  0.23960  0.27655  1.0000
  H   H73       1.0  0.84617  0.25994  0.22893  1.0000
  H   H74       1.0  0.83658  0.23116  0.23193  1.0000
  C   C87       1.0  0.83592  0.28597  0.32545  1.0000
  C   C88       1.0  0.84684  0.32066  0.32329  1.0000
  C   C89       1.0  0.83454  0.31457  0.26147  1.0000
  C   C90       1.0  0.82876  0.29746  0.26164  1.0000
  H   H75       1.0  0.82942  0.32302  0.21664  1.0000
  C   C91       1.0  0.81523  0.29172  0.19743  1.0000
  O   O13       1.0  0.80796  0.30446  0.13991  1.0000
  H   H76       1.0  0.80485  0.28565  0.23472  1.0000
  H   H77       1.0  0.82080  0.28213  0.15319  1.0000
  H   H78       1.0  0.80088  0.31206  0.17707  1.0000
  C   C92       1.0  0.17126  0.75168  0.27411  1.0000
  C   C93       1.0  0.17691  0.76866  0.27607  1.0000
  H   H79       1.0  0.16209  0.74833  0.22837  1.0000
  H   H80       1.0  0.17169  0.77711  0.23144  1.0000
  C   C94       1.0  0.17230  0.72229  0.32488  1.0000
  C   C95       1.0  0.16132  0.68762  0.32247  1.0000
  C   C96       1.0  0.17365  0.69370  0.26076  1.0000
  C   C97       1.0  0.17946  0.71080  0.26107  1.0000
  H   H81       1.0  0.17878  0.68525  0.21596  1.0000
  C   C98       1.0  0.19302  0.71653  0.19698  1.0000
  O   O14       1.0  0.20028  0.70379  0.13945  1.0000
  H   H82       1.0  0.20339  0.72258  0.23437  1.0000
  H   H83       1.0  0.18747  0.72614  0.15273  1.0000
  H   H84       1.0  0.20734  0.69617  0.17663  1.0000
  C   C99       1.0  0.25654  0.17129  0.27451  1.0000
  C   C100      1.0  0.23956  0.17694  0.27640  1.0000
  H   H85       1.0  0.25990  0.16212  0.22881  1.0000
  H   H86       1.0  0.23112  0.17170  0.23179  1.0000
  C   C101      1.0  0.28593  0.17236  0.32536  1.0000
  C   C102      1.0  0.32061  0.16143  0.32325  1.0000
  C   C103      1.0  0.31453  0.17373  0.26140  1.0000
  C   C104      1.0  0.29742  0.17952  0.26156  1.0000
  H   H87       1.0  0.32298  0.17885  0.21658  1.0000
  C   C105      1.0  0.29169  0.19305  0.19733  1.0000
  O   O15       1.0  0.30443  0.20032  0.13983  1.0000
  H   H88       1.0  0.28562  0.20343  0.23462  1.0000
  H   H89       1.0  0.28209  0.18748  0.15309  1.0000
  H   H90       1.0  0.31204  0.20739  0.17699  1.0000
  C   C106      1.0  0.75165  0.83704  0.27423  1.0000
  C   C107      1.0  0.76863  0.83139  0.27622  1.0000
  H   H91       1.0  0.74830  0.84620  0.22849  1.0000
  H   H92       1.0  0.77707  0.83661  0.23160  1.0000
  C   C108      1.0  0.72225  0.83599  0.32496  1.0000
  C   C109      1.0  0.68757  0.84693  0.32253  1.0000
  C   C110      1.0  0.69366  0.83461  0.26082  1.0000
  C   C111      1.0  0.71077  0.82881  0.26115  1.0000
  H   H93       1.0  0.68522  0.82947  0.21602  1.0000
  C   C112      1.0  0.71651  0.81526  0.19708  1.0000
  O   O16       1.0  0.70378  0.80798  0.13955  1.0000
  H   H94       1.0  0.72256  0.80489  0.23449  1.0000
  H   H95       1.0  0.72611  0.82081  0.15284  1.0000
  H   H96       1.0  0.69616  0.80092  0.17672  1.0000
  C   C113      1.0  0.37017  0.12164  0.33582  1.0000
  C   C114      1.0  0.36407  0.10941  0.27343  1.0000
  C   C115      1.0  0.36993  0.09227  0.27159  1.0000
  C   C116      1.0  0.38241  0.08691  0.33521  1.0000
  C   C117      1.0  0.40275  0.06594  0.27826  1.0000
  C   C118      1.0  0.41005  0.04955  0.27650  1.0000
  H   H97       1.0  0.40751  0.07505  0.23581  1.0000
  H   H98       1.0  0.41980  0.04738  0.23232  1.0000
  H   H99       1.0  0.35517  0.11313  0.22703  1.0000
  C   C119      1.0  0.36241  0.08073  0.20251  1.0000
  O   O17       1.0  0.36740  0.08644  0.11499  1.0000
  H   H100      1.0  0.36644  0.06751  0.21089  1.0000
  H   H101      1.0  0.34851  0.08099  0.20858  1.0000
  H   H102      1.0  0.36199  0.07888  0.07054  1.0000
  C   C120      1.0  0.63804  0.88677  0.33459  1.0000
  C   C121      1.0  0.64418  0.89899  0.27225  1.0000
  C   C122      1.0  0.63836  0.91614  0.27043  1.0000
  C   C123      1.0  0.62588  0.92153  0.33402  1.0000
  C   C124      1.0  0.60565  0.94260  0.27687  1.0000
  C   C125      1.0  0.59837  0.95900  0.27534  1.0000
  H   H103      1.0  0.60091  0.93353  0.23411  1.0000
  H   H104      1.0  0.58864  0.96122  0.23111  1.0000
  H   H105      1.0  0.65308  0.89526  0.22592  1.0000
  C   C126      1.0  0.64592  0.92767  0.20145  1.0000
  O   O18       1.0  0.64093  0.92199  0.11388  1.0000
  H   H106      1.0  0.64192  0.94090  0.20987  1.0000
  H   H107      1.0  0.65982  0.92738  0.20758  1.0000
  H   H108      1.0  0.64637  0.92954  0.06949  1.0000
  C   C127      1.0  0.88662  0.37023  0.33580  1.0000
  C   C128      1.0  0.89884  0.36413  0.27341  1.0000
  C   C129      1.0  0.91598  0.36998  0.27157  1.0000
  C   C130      1.0  0.92135  0.38247  0.33520  1.0000
  C   C131      1.0  0.94232  0.40281  0.27827  1.0000
  C   C132      1.0  0.95871  0.41010  0.27653  1.0000
  H   H109      1.0  0.93321  0.40756  0.23582  1.0000
  H   H110      1.0  0.96088  0.41986  0.23235  1.0000
  H   H111      1.0  0.89513  0.35523  0.22701  1.0000
  C   C133      1.0  0.92752  0.36247  0.20250  1.0000
  O   O19       1.0  0.92182  0.36746  0.11497  1.0000
  H   H112      1.0  0.94075  0.36650  0.21088  1.0000
  H   H113      1.0  0.92727  0.34857  0.20856  1.0000
  H   H114      1.0  0.92937  0.36205  0.07053  1.0000
  C   C134      1.0  0.12148  0.63810  0.33465  1.0000
  C   C135      1.0  0.10926  0.64424  0.27228  1.0000
  C   C136      1.0  0.09210  0.63842  0.27046  1.0000
  C   C137      1.0  0.08671  0.62594  0.33404  1.0000
  C   C138      1.0  0.06564  0.60571  0.27685  1.0000
  C   C139      1.0  0.04925  0.59844  0.27530  1.0000
  H   H115      1.0  0.07471  0.60098  0.23408  1.0000
  H   H116      1.0  0.04702  0.58871  0.23105  1.0000
  H   H117      1.0  0.11299  0.65314  0.22595  1.0000
  C   C140      1.0  0.08058  0.64598  0.20147  1.0000
  O   O20       1.0  0.08626  0.64099  0.11390  1.0000
  H   H118      1.0  0.06734  0.64198  0.20988  1.0000
  H   H119      1.0  0.08087  0.65987  0.20759  1.0000
  H   H120      1.0  0.07871  0.64643  0.06951  1.0000
  C   C141      1.0  0.61904  0.09936  0.28717  1.0000
  C   C142      1.0  0.62494  0.11635  0.28721  1.0000
  H   H121      1.0  0.61004  0.09591  0.24077  1.0000
  H   H122      1.0  0.62026  0.12455  0.23979  1.0000
  C   C143      1.0  0.61864  0.07014  0.34617  1.0000
  C   C144      1.0  0.60382  0.03648  0.34876  1.0000
  C   C145      1.0  0.61757  0.04061  0.29095  1.0000
  C   C146      1.0  0.62516  0.05710  0.28878  1.0000
  H   H123      1.0  0.62169  0.03148  0.24706  1.0000
  C   C147      1.0  0.63956  0.06091  0.22606  1.0000
  O   O21       1.0  0.64612  0.04691  0.17469  1.0000
  H   H124      1.0  0.65014  0.06654  0.26379  1.0000
  H   H125      1.0  0.63517  0.07039  0.17760  1.0000
  H   H126      1.0  0.65209  0.03914  0.21609  1.0000
  C   C148      1.0  0.38906  0.90909  0.28516  1.0000
  C   C149      1.0  0.38319  0.89210  0.28536  1.0000
  H   H127      1.0  0.39803  0.91256  0.23859  1.0000
  H   H128      1.0  0.38785  0.88391  0.23782  1.0000
  C   C150      1.0  0.38949  0.93831  0.34429  1.0000
  C   C151      1.0  0.40436  0.97195  0.34678  1.0000
  C   C152      1.0  0.39042  0.96793  0.29008  1.0000
  C   C153      1.0  0.38281  0.95144  0.28793  1.0000
  H   H129      1.0  0.38618  0.97711  0.24681  1.0000
  C   C154      1.0  0.36822  0.94771  0.22627  1.0000
  O   O22       1.0  0.36154  0.96178  0.17586  1.0000
  H   H130      1.0  0.35776  0.94206  0.26468  1.0000
  H   H131      1.0  0.37247  0.93828  0.17719  1.0000
  H   H132      1.0  0.35570  0.96951  0.21797  1.0000
  C   C155      1.0  0.09917  0.38911  0.28516  1.0000
  C   C156      1.0  0.11616  0.38323  0.28535  1.0000
  H   H133      1.0  0.09570  0.39808  0.23860  1.0000
  H   H134      1.0  0.12436  0.38789  0.23785  1.0000
  C   C157      1.0  0.06995  0.38955  0.34427  1.0000
  C   C158      1.0  0.03630  0.40441  0.34679  1.0000
  C   C159      1.0  0.04034  0.39048  0.29005  1.0000
  C   C160      1.0  0.05682  0.38286  0.28795  1.0000
  H   H135      1.0  0.03114  0.38622  0.24686  1.0000
  C   C161      1.0  0.06055  0.36827  0.22631  1.0000
  O   O23       1.0  0.04648  0.36159  0.17590  1.0000
  H   H136      1.0  0.06620  0.35781  0.26474  1.0000
  H   H137      1.0  0.06998  0.37251  0.17723  1.0000
  H   H138      1.0  0.03875  0.35575  0.21803  1.0000
  C   C162      1.0  0.90888  0.61909  0.28717  1.0000
  C   C163      1.0  0.89189  0.62498  0.28724  1.0000
  H   H139      1.0  0.91235  0.61009  0.24076  1.0000
  H   H140      1.0  0.88370  0.62030  0.23976  1.0000
  C   C164      1.0  0.93810  0.61869  0.34619  1.0000
  C   C165      1.0  0.97176  0.60386  0.34872  1.0000
  C   C166      1.0  0.96764  0.61762  0.29099  1.0000
  C   C167      1.0  0.95115  0.62521  0.28879  1.0000
  H   H141      1.0  0.97677  0.62174  0.24702  1.0000
  C   C168      1.0  0.94733  0.63961  0.22607  1.0000
  O   O24       1.0  0.96134  0.64617  0.17470  1.0000
  H   H142      1.0  0.94171  0.65019  0.26379  1.0000
  H   H143      1.0  0.93786  0.63522  0.17760  1.0000
  H   H144      1.0  0.96910  0.65214  0.21610  1.0000
  C   C169      1.0  0.45854  0.00413  0.33691  1.0000
  C   C170      1.0  0.46769  0.99370  0.27614  1.0000
  C   C171      1.0  0.48576  0.99320  0.27434  1.0000
  C   C172      1.0  0.49502  0.00348  0.33638  1.0000
  C   C173      1.0  0.52227  0.01483  0.28565  1.0000
  C   C174      1.0  0.54019  0.01510  0.28583  1.0000
  H   H145      1.0  0.51589  0.02294  0.24345  1.0000
  H   H146      1.0  0.54628  0.02329  0.24302  1.0000
  H   H147      1.0  0.46103  0.98636  0.23129  1.0000
  C   C175      1.0  0.49398  0.98171  0.20728  1.0000
  O   O25       1.0  0.49016  0.98764  0.11853  1.0000
  H   H148      1.0  0.50781  0.98113  0.21509  1.0000
  H   H149      1.0  0.48907  0.96877  0.21637  1.0000
  H   H150      1.0  0.49537  0.97965  0.07556  1.0000
  C   C176      1.0  0.00413  0.45859  0.33691  1.0000
  C   C177      1.0  0.01456  0.46774  0.27612  1.0000
  C   C178      1.0  0.01506  0.48581  0.27429  1.0000
  C   C179      1.0  0.00479  0.49508  0.33632  1.0000
  C   C180      1.0  0.99343  0.52232  0.28558  1.0000
  C   C181      1.0  0.99315  0.54024  0.28580  1.0000
  H   H151      1.0  0.98532  0.51595  0.24341  1.0000
  H   H152      1.0  0.98496  0.54633  0.24299  1.0000
  H   H153      1.0  0.02190  0.46107  0.23128  1.0000
  C   C182      1.0  0.02655  0.49403  0.20723  1.0000
  O   O26       1.0  0.02062  0.49020  0.11849  1.0000
  H   H154      1.0  0.02713  0.50785  0.21501  1.0000
  H   H155      1.0  0.03949  0.48912  0.21632  1.0000
  H   H156      1.0  0.02861  0.49541  0.07550  1.0000
  C   C183      1.0  0.24157  0.41191  0.28091  1.0000
  C   C184      1.0  0.25852  0.41774  0.28265  1.0000
  H   H157      1.0  0.23316  0.41764  0.23779  1.0000
  H   H158      1.0  0.26186  0.42745  0.24025  1.0000
  C   C185      1.0  0.21908  0.39218  0.32607  1.0000
  C   C186      1.0  0.18537  0.37816  0.32330  1.0000
  C   C187      1.0  0.19750  0.37399  0.25629  1.0000
  C   C188      1.0  0.21434  0.38058  0.25666  1.0000
  H   H159      1.0  0.19408  0.36532  0.20826  1.0000
  C   C189      1.0  0.22699  0.37499  0.18727  1.0000
  O   O27       1.0  0.22149  0.36229  0.12429  1.0000
  H   H160      1.0  0.23851  0.37028  0.22046  1.0000
  H   H161      1.0  0.23054  0.38612  0.14755  1.0000
  H   H162      1.0  0.22042  0.35137  0.15650  1.0000
  C   C190      1.0  0.76651  0.59641  0.28171  1.0000
  C   C191      1.0  0.74955  0.59058  0.28333  1.0000
  H   H163      1.0  0.77493  0.59067  0.23868  1.0000
  H   H164      1.0  0.74622  0.58088  0.24087  1.0000
  C   C192      1.0  0.78899  0.61613  0.32707  1.0000
  C   C193      1.0  0.82272  0.63011  0.32444  1.0000
  C   C194      1.0  0.81061  0.63426  0.25728  1.0000
  C   C195      1.0  0.79376  0.62770  0.25758  1.0000
  H   H165      1.0  0.81405  0.64294  0.20926  1.0000
  C   C196      1.0  0.78114  0.63328  0.18801  1.0000
  O   O28       1.0  0.78667  0.64595  0.12497  1.0000
  H   H166      1.0  0.76961  0.63801  0.22105  1.0000
  H   H167      1.0  0.77759  0.62213  0.14836  1.0000
  H   H168      1.0  0.78774  0.65688  0.15709  1.0000
  C   C197      1.0  0.59633  0.24171  0.28165  1.0000
  C   C198      1.0  0.59050  0.25867  0.28328  1.0000
  H   H169      1.0  0.59060  0.23329  0.23862  1.0000
  H   H170      1.0  0.58078  0.26199  0.24087  1.0000
  C   C199      1.0  0.61607  0.21924  0.32696  1.0000
  C   C200      1.0  0.63008  0.18552  0.32443  1.0000
  C   C201      1.0  0.63423  0.19764  0.25729  1.0000
  C   C202      1.0  0.62765  0.21447  0.25752  1.0000
  H   H171      1.0  0.64289  0.19420  0.20922  1.0000
  C   C203      1.0  0.63322  0.22710  0.18793  1.0000
  O   O29       1.0  0.64590  0.22157  0.12492  1.0000
  H   H172      1.0  0.63793  0.23864  0.22094  1.0000
  H   H173      1.0  0.62207  0.23063  0.14826  1.0000
  H   H174      1.0  0.65683  0.22052  0.15706  1.0000
  C   C204      1.0  0.41182  0.76666  0.28098  1.0000
  C   C205      1.0  0.41765  0.74970  0.28270  1.0000
  H   H175      1.0  0.41756  0.77507  0.23788  1.0000
  H   H176      1.0  0.42735  0.74635  0.24025  1.0000
  C   C206      1.0  0.39211  0.78916  0.32620  1.0000
  C   C207      1.0  0.37815  0.82290  0.32331  1.0000
  C   C208      1.0  0.37398  0.81077  0.25629  1.0000
  C   C209      1.0  0.38053  0.79392  0.25671  1.0000
  H   H177      1.0  0.36530  0.81419  0.20828  1.0000
  C   C210      1.0  0.37494  0.78127  0.18728  1.0000
  O   O30       1.0  0.36225  0.78679  0.12425  1.0000
  H   H178      1.0  0.37021  0.76975  0.22045  1.0000
  H   H179      1.0  0.38608  0.77771  0.14762  1.0000
  H   H180      1.0  0.35134  0.78787  0.15640  1.0000
  C   C211      1.0  0.73759  0.40983  0.34444  1.0000
  C   C212      1.0  0.74308  0.39633  0.28825  1.0000
  C   C213      1.0  0.76009  0.39015  0.28877  1.0000
  C   C214      1.0  0.77223  0.39781  0.34766  1.0000
  C   C215      1.0  0.80168  0.39654  0.29250  1.0000
  C   C216      1.0  0.81823  0.38954  0.29352  1.0000
  H   H181      1.0  0.79842  0.40458  0.24110  1.0000
  H   H182      1.0  0.82637  0.39239  0.24194  1.0000
  H   H183      1.0  0.73446  0.39091  0.24514  1.0000
  C   C217      1.0  0.76415  0.37561  0.22779  1.0000
  O   O31       1.0  0.76264  0.38112  0.13639  1.0000
  H   H184      1.0  0.77698  0.37061  0.23834  1.0000
  H   H185      1.0  0.75522  0.36519  0.24085  1.0000
  H   H186      1.0  0.76500  0.37125  0.09750  1.0000
  C   C218      1.0  0.27054  0.59851  0.34400  1.0000
  C   C219      1.0  0.26507  0.61201  0.28782  1.0000
  C   C220      1.0  0.24804  0.61819  0.28821  1.0000
  C   C221      1.0  0.23589  0.61050  0.34692  1.0000
  C   C222      1.0  0.20647  0.61178  0.29140  1.0000
  C   C223      1.0  0.18990  0.61873  0.29242  1.0000
  H   H187      1.0  0.20975  0.60375  0.23999  1.0000
  H   H188      1.0  0.18178  0.61592  0.24068  1.0000
  H   H189      1.0  0.27369  0.61745  0.24483  1.0000
  C   C224      1.0  0.24400  0.63272  0.22727  1.0000
  O   O32       1.0  0.24554  0.62723  0.13586  1.0000
  H   H190      1.0  0.23116  0.63772  0.23774  1.0000
  H   H191      1.0  0.25292  0.64315  0.24045  1.0000
  H   H192      1.0  0.24319  0.63711  0.09699  1.0000
  C   C225      1.0  0.40974  0.27068  0.34447  1.0000
  C   C226      1.0  0.39624  0.26519  0.28828  1.0000
  C   C227      1.0  0.39006  0.24817  0.28881  1.0000
  C   C228      1.0  0.39773  0.23604  0.34771  1.0000
  C   C229      1.0  0.39647  0.20659  0.29250  1.0000
  C   C230      1.0  0.38948  0.19004  0.29352  1.0000
  H   H193      1.0  0.40451  0.20986  0.24108  1.0000
  H   H194      1.0  0.39233  0.18190  0.24191  1.0000
  H   H195      1.0  0.39081  0.27380  0.24517  1.0000
  C   C231      1.0  0.37553  0.24410  0.22783  1.0000
  O   O33       1.0  0.38104  0.24561  0.13643  1.0000
  H   H196      1.0  0.37053  0.23127  0.23839  1.0000
  H   H197      1.0  0.36511  0.25303  0.24088  1.0000
  H   H198      1.0  0.37117  0.24325  0.09754  1.0000
  C   C232      1.0  0.59840  0.73773  0.34395  1.0000
  C   C233      1.0  0.61191  0.74319  0.28778  1.0000
  C   C234      1.0  0.61809  0.76021  0.28817  1.0000
  C   C235      1.0  0.61041  0.77237  0.34687  1.0000
  C   C236      1.0  0.61171  0.80180  0.29143  1.0000
  C   C237      1.0  0.61867  0.81836  0.29245  1.0000
  H   H199      1.0  0.60366  0.79853  0.24007  1.0000
  H   H200      1.0  0.61585  0.82649  0.24075  1.0000
  H   H201      1.0  0.61735  0.73457  0.24479  1.0000
  C   C238      1.0  0.63263  0.76425  0.22722  1.0000
  O   O34       1.0  0.62714  0.76271  0.13582  1.0000
  H   H202      1.0  0.63763  0.77709  0.23767  1.0000
  H   H203      1.0  0.64306  0.75533  0.24043  1.0000
  H   H204      1.0  0.63702  0.76505  0.09695  1.0000
  C   C239      1.0  0.31132  0.45848  0.34764  1.0000
  C   C240      1.0  0.32189  0.46677  0.28415  1.0000
  C   C241      1.0  0.32339  0.48483  0.27997  1.0000
  C   C242      1.0  0.31418  0.49507  0.34257  1.0000
  C   C243      1.0  0.30244  0.52147  0.28163  1.0000
  C   C244      1.0  0.30095  0.53934  0.27933  1.0000
  H   H205      1.0  0.29474  0.51437  0.24051  1.0000
  H   H206      1.0  0.29233  0.54457  0.23572  1.0000
  H   H207      1.0  0.32817  0.45952  0.23747  1.0000
  C   C245      1.0  0.33448  0.49214  0.20838  1.0000
  O   O35       1.0  0.32706  0.48869  0.12239  1.0000
  H   H208      1.0  0.33617  0.50589  0.21557  1.0000
  H   H209      1.0  0.34713  0.48631  0.21268  1.0000
  H   H210      1.0  0.33476  0.49332  0.07620  1.0000
  C   C246      1.0  0.69674  0.54986  0.34793  1.0000
  C   C247      1.0  0.68621  0.54156  0.28428  1.0000
  C   C248      1.0  0.68472  0.52350  0.28011  1.0000
  C   C249      1.0  0.69390  0.51327  0.34289  1.0000
  C   C250      1.0  0.70569  0.48688  0.28204  1.0000
  C   C251      1.0  0.70720  0.46902  0.27971  1.0000
  H   H211      1.0  0.71338  0.49399  0.24094  1.0000
  H   H212      1.0  0.71583  0.46379  0.23617  1.0000
  H   H213      1.0  0.67995  0.54881  0.23749  1.0000
  C   C252      1.0  0.67368  0.51618  0.20836  1.0000
  O   O36       1.0  0.68115  0.51962  0.12247  1.0000
  H   H214      1.0  0.67199  0.50243  0.21556  1.0000
  H   H215      1.0  0.66103  0.52200  0.21246  1.0000
  H   H216      1.0  0.67348  0.51498  0.07618  1.0000
  C   C253      1.0  0.54976  0.31147  0.34785  1.0000
  C   C254      1.0  0.54146  0.32203  0.28430  1.0000
  C   C255      1.0  0.52341  0.32353  0.28010  1.0000
  C   C256      1.0  0.51317  0.31433  0.34276  1.0000
  C   C257      1.0  0.48677  0.30258  0.28188  1.0000
  C   C258      1.0  0.46890  0.30108  0.27959  1.0000
  H   H217      1.0  0.49386  0.29488  0.24078  1.0000
  H   H218      1.0  0.46367  0.29245  0.23603  1.0000
  H   H219      1.0  0.54872  0.32830  0.23757  1.0000
  C   C259      1.0  0.51609  0.33459  0.20843  1.0000
  O   O37       1.0  0.51954  0.32715  0.12249  1.0000
  H   H220      1.0  0.50235  0.33629  0.21560  1.0000
  H   H221      1.0  0.52192  0.34724  0.21264  1.0000
  H   H222      1.0  0.51491  0.33484  0.07625  1.0000
  C   C260      1.0  0.45837  0.69690  0.34765  1.0000
  C   C261      1.0  0.46667  0.68634  0.28415  1.0000
  C   C262      1.0  0.48473  0.68485  0.28000  1.0000
  C   C263      1.0  0.49496  0.69405  0.34269  1.0000
  C   C264      1.0  0.52135  0.70582  0.28178  1.0000
  C   C265      1.0  0.53922  0.70732  0.27943  1.0000
  H   H223      1.0  0.51425  0.71350  0.24064  1.0000
  H   H224      1.0  0.54444  0.71595  0.23584  1.0000
  H   H225      1.0  0.45942  0.68007  0.23742  1.0000
  C   C266      1.0  0.49205  0.67377  0.20839  1.0000
  O   O38       1.0  0.48861  0.68121  0.12241  1.0000
  H   H226      1.0  0.50580  0.67208  0.21561  1.0000
  H   H227      1.0  0.48623  0.66112  0.21262  1.0000
  H   H228      1.0  0.49324  0.67351  0.07621  1.0000
  C   C267      1.0  0.34670  0.37210  0.28257  1.0000
  C   C268      1.0  0.33341  0.38418  0.28130  1.0000
  H   H229      1.0  0.34609  0.36201  0.23897  1.0000
  H   H230      1.0  0.32371  0.38252  0.23615  1.0000
  C   C269      1.0  0.37351  0.36059  0.34123  1.0000
  C   C270      1.0  0.39821  0.33326  0.34367  1.0000
  C   C271      1.0  0.40038  0.34789  0.28882  1.0000
  C   C272      1.0  0.38844  0.36157  0.28672  1.0000
  H   H231      1.0  0.41072  0.34829  0.24713  1.0000
  C   C273      1.0  0.39123  0.37662  0.22676  1.0000
  O   O39       1.0  0.40696  0.37713  0.17776  1.0000
  H   H232      1.0  0.39025  0.38835  0.26619  1.0000
  H   H233      1.0  0.38105  0.37679  0.17678  1.0000
  H   H234      1.0  0.41627  0.37916  0.22088  1.0000
  C   C274      1.0  0.66139  0.63625  0.28260  1.0000
  C   C275      1.0  0.67467  0.62416  0.28137  1.0000
  H   H235      1.0  0.66201  0.64633  0.23898  1.0000
  H   H236      1.0  0.68437  0.62581  0.23622  1.0000
  C   C276      1.0  0.63458  0.64778  0.34120  1.0000
  C   C277      1.0  0.60991  0.67513  0.34350  1.0000
  C   C278      1.0  0.60772  0.66049  0.28878  1.0000
  C   C279      1.0  0.61965  0.64681  0.28670  1.0000
  H   H237      1.0  0.59739  0.66009  0.24705  1.0000
  C   C280      1.0  0.61684  0.63175  0.22681  1.0000
  O   O40       1.0  0.60111  0.63124  0.17785  1.0000
  H   H238      1.0  0.61782  0.62003  0.26630  1.0000
  H   H239      1.0  0.62703  0.63156  0.17682  1.0000
  H   H240      1.0  0.59181  0.62922  0.22099  1.0000
  C   C281      1.0  0.63614  0.34684  0.28265  1.0000
  C   C282      1.0  0.62404  0.33355  0.28139  1.0000
  H   H241      1.0  0.64622  0.34622  0.23902  1.0000
  H   H242      1.0  0.62570  0.32386  0.23624  1.0000
  C   C283      1.0  0.64766  0.37364  0.34129  1.0000
  C   C284      1.0  0.67501  0.39832  0.34368  1.0000
  C   C285      1.0  0.66038  0.40049  0.28883  1.0000
  C   C286      1.0  0.64670  0.38857  0.28675  1.0000
  H   H243      1.0  0.65998  0.41083  0.24713  1.0000
  C   C287      1.0  0.63165  0.39136  0.22680  1.0000
  O   O41       1.0  0.63114  0.40709  0.17778  1.0000
  H   H244      1.0  0.61991  0.39039  0.26624  1.0000
  H   H245      1.0  0.63146  0.38118  0.17683  1.0000
  H   H246      1.0  0.62911  0.41640  0.22088  1.0000
  C   C288      1.0  0.37198  0.66153  0.28251  1.0000
  C   C289      1.0  0.38407  0.67482  0.28126  1.0000
  H   H247      1.0  0.36190  0.66214  0.23891  1.0000
  H   H248      1.0  0.38240  0.68451  0.23610  1.0000
  C   C290      1.0  0.36047  0.63471  0.34113  1.0000
  C   C291      1.0  0.33313  0.61002  0.34349  1.0000
  C   C292      1.0  0.34777  0.60784  0.28876  1.0000
  C   C293      1.0  0.36145  0.61978  0.28666  1.0000
  H   H249      1.0  0.34817  0.59751  0.24704  1.0000
  C   C294      1.0  0.37651  0.61698  0.22677  1.0000
  O   O42       1.0  0.37702  0.60125  0.17782  1.0000
  H   H250      1.0  0.38823  0.61796  0.26623  1.0000
  H   H251      1.0  0.37669  0.62716  0.17676  1.0000
  H   H252      1.0  0.37905  0.59194  0.22098  1.0000
  C   C295      1.0  0.08926  0.06608  0.32929  1.0000
  C   C296      1.0  0.07198  0.07092  0.33559  1.0000
  C   C297      1.0  0.06705  0.08814  0.34443  1.0000
  C   C298      1.0  0.07989  0.10075  0.34467  1.0000
  C   C299      1.0  0.09738  0.09636  0.33945  1.0000
  C   C300      1.0  0.10183  0.07891  0.33301  1.0000
  H   H253      1.0  0.07641  0.11330  0.34917  1.0000
  H   H254      1.0  0.11441  0.07544  0.33017  1.0000
  H   H255      1.0  0.06277  0.06166  0.33400  1.0000
  C   C301      1.0  0.91901  0.94214  0.32924  1.0000
  C   C302      1.0  0.93628  0.93729  0.33553  1.0000
  C   C303      1.0  0.94120  0.92006  0.34441  1.0000
  C   C304      1.0  0.92836  0.90746  0.34469  1.0000
  C   C305      1.0  0.91087  0.91186  0.33949  1.0000
  C   C306      1.0  0.90643  0.92932  0.33301  1.0000
  H   H256      1.0  0.93182  0.89491  0.34922  1.0000
  H   H257      1.0  0.89385  0.93279  0.33018  1.0000
  H   H258      1.0  0.94550  0.94654  0.33387  1.0000
  C   C307      1.0  0.94215  0.08924  0.32930  1.0000
  C   C308      1.0  0.93730  0.07196  0.33557  1.0000
  C   C309      1.0  0.92008  0.06703  0.34442  1.0000
  C   C310      1.0  0.90748  0.07988  0.34466  1.0000
  C   C311      1.0  0.91187  0.09736  0.33948  1.0000
  C   C312      1.0  0.92933  0.10182  0.33305  1.0000
  H   H259      1.0  0.89492  0.07641  0.34917  1.0000
  H   H260      1.0  0.93280  0.11439  0.33023  1.0000
  H   H261      1.0  0.94656  0.06275  0.33396  1.0000
  C   C313      1.0  0.06609  0.91898  0.32925  1.0000
  C   C314      1.0  0.07094  0.93626  0.33557  1.0000
  C   C315      1.0  0.08817  0.94119  0.34445  1.0000
  C   C316      1.0  0.10077  0.92834  0.34470  1.0000
  C   C317      1.0  0.09638  0.91086  0.33947  1.0000
  C   C318      1.0  0.07892  0.90641  0.33299  1.0000
  H   H262      1.0  0.11332  0.93181  0.34924  1.0000
  H   H263      1.0  0.07545  0.89383  0.33014  1.0000
  H   H264      1.0  0.06168  0.94547  0.33395  1.0000
  C   C319      1.0  0.18632  0.18666  0.34818  1.0000
  C   C320      1.0  0.20376  0.18227  0.34421  1.0000
  C   C321      1.0  0.21671  0.19479  0.34177  1.0000
  C   C322      1.0  0.21176  0.21216  0.34478  1.0000
  C   C323      1.0  0.19438  0.21708  0.34921  1.0000
  C   C324      1.0  0.18188  0.20409  0.35008  1.0000
  H   H265      1.0  0.22097  0.22140  0.34366  1.0000
  H   H266      1.0  0.16925  0.20736  0.35241  1.0000
  H   H267      1.0  0.20707  0.16964  0.34283  1.0000
  C   C325      1.0  0.82185  0.82164  0.34824  1.0000
  C   C326      1.0  0.80442  0.82604  0.34417  1.0000
  C   C327      1.0  0.79146  0.81352  0.34171  1.0000
  C   C328      1.0  0.79640  0.79615  0.34481  1.0000
  C   C329      1.0  0.81377  0.79122  0.34933  1.0000
  C   C330      1.0  0.82628  0.80420  0.35022  1.0000
  H   H268      1.0  0.78718  0.78692  0.34367  1.0000
  H   H269      1.0  0.83891  0.80092  0.35263  1.0000
  H   H270      1.0  0.80111  0.83867  0.34273  1.0000
  C   C331      1.0  0.82162  0.18636  0.34832  1.0000
  C   C332      1.0  0.82601  0.20379  0.34433  1.0000
  C   C333      1.0  0.81350  0.21675  0.34193  1.0000
  C   C334      1.0  0.79612  0.21180  0.34498  1.0000
  C   C335      1.0  0.79120  0.19443  0.34943  1.0000
  C   C336      1.0  0.80419  0.18192  0.35027  1.0000
  H   H271      1.0  0.78689  0.22102  0.34388  1.0000
  H   H272      1.0  0.80091  0.16929  0.35263  1.0000
  H   H273      1.0  0.83864  0.20710  0.34292  1.0000
  C   C337      1.0  0.18664  0.82188  0.34810  1.0000
  C   C338      1.0  0.18225  0.80445  0.34405  1.0000
  C   C339      1.0  0.19477  0.79149  0.34156  1.0000
  C   C340      1.0  0.21214  0.79644  0.34461  1.0000
  C   C341      1.0  0.21707  0.81382  0.34911  1.0000
  C   C342      1.0  0.20408  0.82632  0.35003  1.0000
  H   H274      1.0  0.22137  0.78722  0.34345  1.0000
  H   H275      1.0  0.20735  0.83895  0.35240  1.0000
  H   H276      1.0  0.16962  0.80114  0.34265  1.0000
  C   C343      1.0  0.44028  0.00417  0.33826  1.0000
  C   C344      1.0  0.43099  0.98874  0.34064  1.0000
  C   C345      1.0  0.41293  0.98826  0.34312  1.0000
  C   C346      1.0  0.40418  0.00415  0.34033  1.0000
  C   C347      1.0  0.41291  0.02006  0.33671  1.0000
  C   C348      1.0  0.43098  0.01960  0.33721  1.0000
  H   H277      1.0  0.39114  0.00415  0.34097  1.0000
  H   H278      1.0  0.43764  0.03082  0.33611  1.0000
  H   H279      1.0  0.43765  0.97752  0.34100  1.0000
  C   C349      1.0  0.56796  0.00416  0.34125  1.0000
  C   C350      1.0  0.57721  0.01961  0.34415  1.0000
  C   C351      1.0  0.59527  0.02016  0.34515  1.0000
  C   C352      1.0  0.60410  0.00432  0.34099  1.0000
  C   C353      1.0  0.59543  0.98840  0.33678  1.0000
  C   C354      1.0  0.57736  0.98879  0.33797  1.0000
  H   H280      1.0  0.61713  0.00438  0.34099  1.0000
  H   H281      1.0  0.57079  0.97752  0.33615  1.0000
  H   H282      1.0  0.57052  0.03081  0.34604  1.0000
  C   C355      1.0  0.00409  0.44033  0.33827  1.0000
  C   C356      1.0  0.01952  0.43104  0.34064  1.0000
  C   C357      1.0  0.02000  0.41298  0.34314  1.0000
  C   C358      1.0  0.00410  0.40423  0.34036  1.0000
  C   C359      1.0  0.98820  0.41296  0.33675  1.0000
  C   C360      1.0  0.98866  0.43103  0.33723  1.0000
  H   H283      1.0  0.00411  0.39119  0.34101  1.0000
  H   H284      1.0  0.97744  0.43769  0.33614  1.0000
  H   H285      1.0  0.03074  0.43770  0.34100  1.0000
  C   C361      1.0  0.00409  0.56801  0.34123  1.0000
  C   C362      1.0  0.98864  0.57726  0.34412  1.0000
  C   C363      1.0  0.98808  0.59532  0.34513  1.0000
  C   C364      1.0  0.00392  0.60415  0.34096  1.0000
  C   C365      1.0  0.01985  0.59548  0.33676  1.0000
  C   C366      1.0  0.01946  0.57742  0.33794  1.0000
  H   H286      1.0  0.00386  0.61719  0.34097  1.0000
  H   H287      1.0  0.03073  0.57085  0.33611  1.0000
  H   H288      1.0  0.97744  0.57057  0.34602  1.0000
  C   C367      1.0  0.28822  0.41614  0.34068  1.0000
  C   C368      1.0  0.30228  0.40479  0.33925  1.0000
  C   C369      1.0  0.31945  0.41053  0.34018  1.0000
  C   C370      1.0  0.32224  0.42843  0.34293  1.0000
  C   C371      1.0  0.30862  0.44033  0.34541  1.0000
  C   C372      1.0  0.29178  0.43382  0.34398  1.0000
  H   H289      1.0  0.33449  0.43293  0.34334  1.0000
  H   H290      1.0  0.28180  0.44222  0.34536  1.0000
  H   H291      1.0  0.29993  0.39196  0.33742  1.0000
  C   C373      1.0  0.71984  0.59219  0.34108  1.0000
  C   C374      1.0  0.70578  0.60355  0.33953  1.0000
  C   C375      1.0  0.68861  0.59781  0.34035  1.0000
  C   C376      1.0  0.68581  0.57991  0.34310  1.0000
  C   C377      1.0  0.69944  0.56801  0.34569  1.0000
  C   C378      1.0  0.71627  0.57452  0.34437  1.0000
  H   H292      1.0  0.67357  0.57541  0.34343  1.0000
  H   H293      1.0  0.72626  0.56612  0.34585  1.0000
  H   H294      1.0  0.70813  0.61638  0.33770  1.0000
  C   C379      1.0  0.59209  0.28838  0.34109  1.0000
  C   C380      1.0  0.60345  0.30244  0.33955  1.0000
  C   C381      1.0  0.59771  0.31961  0.34038  1.0000
  C   C382      1.0  0.57980  0.32240  0.34311  1.0000
  C   C383      1.0  0.56790  0.30877  0.34566  1.0000
  C   C384      1.0  0.57442  0.29194  0.34435  1.0000
  H   H295      1.0  0.57530  0.33465  0.34344  1.0000
  H   H296      1.0  0.56602  0.28195  0.34580  1.0000
  H   H297      1.0  0.61627  0.30009  0.33773  1.0000
  C   C385      1.0  0.41603  0.72000  0.34067  1.0000
  C   C386      1.0  0.40468  0.70594  0.33921  1.0000
  C   C387      1.0  0.41042  0.68877  0.34014  1.0000
  C   C388      1.0  0.42832  0.68597  0.34290  1.0000
  C   C389      1.0  0.44022  0.69960  0.34542  1.0000
  C   C390      1.0  0.43371  0.71644  0.34398  1.0000
  H   H298      1.0  0.43282  0.67373  0.34330  1.0000
  H   H299      1.0  0.44211  0.72642  0.34539  1.0000
  H   H300      1.0  0.39185  0.70829  0.33737  1.0000
  C   C391      1.0  0.72028  0.41591  0.34286  1.0000
  C   C392      1.0  0.70618  0.40460  0.34327  1.0000
  C   C393      1.0  0.68902  0.41036  0.34276  1.0000
  C   C394      1.0  0.68632  0.42830  0.34049  1.0000
  C   C395      1.0  0.69996  0.44021  0.33861  1.0000
  C   C396      1.0  0.71677  0.43360  0.34063  1.0000
  H   H301      1.0  0.67410  0.43283  0.34005  1.0000
  H   H302      1.0  0.72681  0.44193  0.34030  1.0000
  H   H303      1.0  0.70854  0.39178  0.34422  1.0000
  C   C397      1.0  0.28786  0.59243  0.34251  1.0000
  C   C398      1.0  0.30195  0.60374  0.34298  1.0000
  C   C399      1.0  0.31912  0.59798  0.34253  1.0000
  C   C400      1.0  0.32182  0.58005  0.34028  1.0000
  C   C401      1.0  0.30817  0.56813  0.33832  1.0000
  C   C402      1.0  0.29137  0.57475  0.34027  1.0000
  H   H304      1.0  0.33404  0.57551  0.33989  1.0000
  H   H305      1.0  0.28133  0.56641  0.33989  1.0000
  H   H306      1.0  0.29960  0.61657  0.34391  1.0000
  C   C403      1.0  0.41581  0.28799  0.34287  1.0000
  C   C404      1.0  0.40450  0.30209  0.34326  1.0000
  C   C405      1.0  0.41026  0.31926  0.34275  1.0000
  C   C406      1.0  0.42819  0.32195  0.34047  1.0000
  C   C407      1.0  0.44010  0.30831  0.33859  1.0000
  C   C408      1.0  0.43349  0.29151  0.34062  1.0000
  H   H307      1.0  0.43272  0.33418  0.34002  1.0000
  H   H308      1.0  0.44183  0.28147  0.34029  1.0000
  H   H309      1.0  0.39167  0.29973  0.34423  1.0000
  C   C409      1.0  0.59232  0.72041  0.34250  1.0000
  C   C410      1.0  0.60363  0.70631  0.34296  1.0000
  C   C411      1.0  0.59787  0.68914  0.34254  1.0000
  C   C412      1.0  0.57993  0.68645  0.34031  1.0000
  C   C413      1.0  0.56803  0.70010  0.33838  1.0000
  C   C414      1.0  0.57464  0.71690  0.34029  1.0000
  H   H310      1.0  0.57540  0.67423  0.33993  1.0000
  H   H311      1.0  0.56630  0.72694  0.33990  1.0000
  H   H312      1.0  0.61646  0.70866  0.34389  1.0000
  C   C415      1.0  0.15836  0.33909  0.35261  1.0000
  C   C416      1.0  0.17231  0.35026  0.34227  1.0000
  C   C417      1.0  0.17026  0.36805  0.33291  1.0000
  C   C418      1.0  0.15347  0.37475  0.33597  1.0000
  C   C419      1.0  0.13892  0.36402  0.34516  1.0000
  C   C420      1.0  0.14178  0.34617  0.35220  1.0000
  H   H313      1.0  0.15186  0.38766  0.33107  1.0000
  H   H314      1.0  0.13159  0.33808  0.35790  1.0000
  H   H315      1.0  0.18439  0.34525  0.34111  1.0000
  C   C421      1.0  0.84972  0.66919  0.35365  1.0000
  C   C422      1.0  0.83577  0.65802  0.34326  1.0000
  C   C423      1.0  0.83782  0.64023  0.33409  1.0000
  C   C424      1.0  0.85460  0.63352  0.33739  1.0000
  C   C425      1.0  0.86915  0.64425  0.34660  1.0000
  C   C426      1.0  0.86630  0.66211  0.35345  1.0000
  H   H316      1.0  0.85621  0.62061  0.33264  1.0000
  H   H317      1.0  0.87648  0.67019  0.35916  1.0000
  H   H318      1.0  0.82369  0.66303  0.34193  1.0000
  C   C427      1.0  0.66916  0.15852  0.35365  1.0000
  C   C428      1.0  0.65799  0.17247  0.34329  1.0000
  C   C429      1.0  0.64020  0.17042  0.33416  1.0000
  C   C430      1.0  0.63349  0.15364  0.33741  1.0000
  C   C431      1.0  0.64422  0.13909  0.34662  1.0000
  C   C432      1.0  0.66207  0.14194  0.35347  1.0000
  H   H319      1.0  0.62058  0.15204  0.33264  1.0000
  H   H320      1.0  0.67015  0.13175  0.35918  1.0000
  H   H321      1.0  0.66300  0.18454  0.34196  1.0000
  C   C433      1.0  0.33906  0.84988  0.35257  1.0000
  C   C434      1.0  0.35024  0.83594  0.34226  1.0000
  C   C435      1.0  0.36803  0.83800  0.33293  1.0000
  C   C436      1.0  0.37472  0.85479  0.33595  1.0000
  C   C437      1.0  0.36398  0.86933  0.34513  1.0000
  C   C438      1.0  0.34613  0.86647  0.35218  1.0000
  H   H322      1.0  0.38763  0.85640  0.33105  1.0000
  H   H323      1.0  0.33804  0.87665  0.35786  1.0000
  H   H324      1.0  0.34523  0.82386  0.34109  1.0000
  C   C439      1.0  0.85007  0.33854  0.33107  1.0000
  C   C440      1.0  0.83610  0.34971  0.34112  1.0000
  C   C441      1.0  0.83814  0.36751  0.35019  1.0000
  C   C442      1.0  0.85492  0.37422  0.34699  1.0000
  C   C443      1.0  0.86948  0.36350  0.33799  1.0000
  C   C444      1.0  0.86665  0.34563  0.33137  1.0000
  H   H325      1.0  0.85651  0.38713  0.35167  1.0000
  H   H326      1.0  0.87684  0.33755  0.32590  1.0000
  H   H327      1.0  0.82403  0.34469  0.34230  1.0000
  C   C445      1.0  0.15807  0.66974  0.33014  1.0000
  C   C446      1.0  0.17202  0.65855  0.34019  1.0000
  C   C447      1.0  0.16996  0.64075  0.34919  1.0000
  C   C448      1.0  0.15317  0.63407  0.34591  1.0000
  C   C449      1.0  0.13863  0.64481  0.33690  1.0000
  C   C450      1.0  0.14149  0.66267  0.33035  1.0000
  H   H328      1.0  0.15156  0.62116  0.35054  1.0000
  H   H329      1.0  0.13131  0.67076  0.32489  1.0000
  H   H330      1.0  0.18410  0.66356  0.34144  1.0000
  C   C451      1.0  0.33849  0.15820  0.33104  1.0000
  C   C452      1.0  0.34966  0.17216  0.34111  1.0000
  C   C453      1.0  0.36746  0.17012  0.35021  1.0000
  C   C454      1.0  0.37416  0.15333  0.34701  1.0000
  C   C455      1.0  0.36344  0.13878  0.33801  1.0000
  C   C456      1.0  0.34558  0.14162  0.33136  1.0000
  H   H331      1.0  0.38708  0.15174  0.35171  1.0000
  H   H332      1.0  0.33750  0.13143  0.32588  1.0000
  H   H333      1.0  0.34464  0.18423  0.34230  1.0000
  C   C457      1.0  0.66969  0.85018  0.33013  1.0000
  C   C458      1.0  0.65851  0.83623  0.34018  1.0000
  C   C459      1.0  0.64071  0.83828  0.34917  1.0000
  C   C460      1.0  0.63402  0.85507  0.34587  1.0000
  C   C461      1.0  0.64475  0.86962  0.33687  1.0000
  C   C462      1.0  0.66261  0.86676  0.33035  1.0000
  H   H334      1.0  0.62111  0.85668  0.35047  1.0000
  H   H335      1.0  0.67071  0.87694  0.32491  1.0000
  H   H336      1.0  0.66352  0.82415  0.34146  1.0000
  C   C463      1.0  0.17355  0.17377  0.34962  1.0000
  C   C464      1.0  0.17464  0.15992  0.41016  1.0000
  C   C465      1.0  0.16242  0.14666  0.41103  1.0000
  C   C466      1.0  0.14868  0.14745  0.34870  1.0000
  C   C467      1.0  0.12230  0.13533  0.40381  1.0000
  C   C468      1.0  0.10960  0.12276  0.40276  1.0000
  H   H337      1.0  0.12150  0.14493  0.45028  1.0000
  H   H338      1.0  0.10000  0.12348  0.44920  1.0000
  H   H339      1.0  0.18456  0.15948  0.45492  1.0000
  C   C469      1.0  0.16492  0.13253  0.47680  1.0000
  O   O43       1.0  0.16310  0.13908  0.56611  1.0000
  H   H340      1.0  0.15581  0.12217  0.46737  1.0000
  H   H341      1.0  0.17768  0.12717  0.46787  1.0000
  H   H342      1.0  0.16517  0.12964  0.60826  1.0000
  C   C470      1.0  0.83463  0.83451  0.34969  1.0000
  C   C471      1.0  0.83354  0.84837  0.41020  1.0000
  C   C472      1.0  0.84578  0.86162  0.41109  1.0000
  C   C473      1.0  0.85953  0.86081  0.34883  1.0000
  C   C474      1.0  0.88591  0.87292  0.40395  1.0000
  C   C475      1.0  0.89863  0.88547  0.40284  1.0000
  H   H343      1.0  0.88671  0.86331  0.45039  1.0000
  H   H344      1.0  0.90823  0.88475  0.44928  1.0000
  H   H345      1.0  0.82361  0.84883  0.45491  1.0000
  C   C476      1.0  0.84329  0.87575  0.47683  1.0000
  O   O44       1.0  0.84508  0.86921  0.56616  1.0000
  H   H346      1.0  0.85240  0.88611  0.46743  1.0000
  H   H347      1.0  0.83053  0.88113  0.46784  1.0000
  H   H348      1.0  0.84301  0.87866  0.60830  1.0000
  C   C477      1.0  0.83450  0.17359  0.34972  1.0000
  C   C478      1.0  0.84836  0.17467  0.41024  1.0000
  C   C479      1.0  0.86161  0.16244  0.41110  1.0000
  C   C480      1.0  0.86081  0.14869  0.34878  1.0000
  C   C481      1.0  0.87292  0.12231  0.40386  1.0000
  C   C482      1.0  0.88548  0.10960  0.40280  1.0000
  H   H349      1.0  0.86331  0.12152  0.45032  1.0000
  H   H350      1.0  0.88476  0.10000  0.44923  1.0000
  H   H351      1.0  0.84881  0.18459  0.45500  1.0000
  C   C483      1.0  0.87574  0.16493  0.47684  1.0000
  O   O45       1.0  0.86920  0.16312  0.56616  1.0000
  H   H352      1.0  0.88611  0.15582  0.46740  1.0000
  H   H353      1.0  0.88111  0.17769  0.46789  1.0000
  H   H354      1.0  0.87865  0.16519  0.60830  1.0000
  C   C484      1.0  0.17376  0.83466  0.34958  1.0000
  C   C485      1.0  0.15991  0.83356  0.41012  1.0000
  C   C486      1.0  0.14665  0.84579  0.41103  1.0000
  C   C487      1.0  0.14745  0.85954  0.34876  1.0000
  C   C488      1.0  0.13533  0.88591  0.40391  1.0000
  C   C489      1.0  0.12277  0.89863  0.40281  1.0000
  H   H355      1.0  0.14493  0.88671  0.45035  1.0000
  H   H356      1.0  0.12349  0.90822  0.44926  1.0000
  H   H357      1.0  0.15946  0.82363  0.45484  1.0000
  C   C490      1.0  0.13253  0.84329  0.47679  1.0000
  O   O46       1.0  0.13908  0.84509  0.56611  1.0000
  H   H358      1.0  0.12216  0.85240  0.46741  1.0000
  H   H359      1.0  0.12716  0.83053  0.46782  1.0000
  H   H360      1.0  0.12963  0.84301  0.60826  1.0000
  C   C491      1.0  0.10590  0.02292  0.38924  1.0000
  C   C492      1.0  0.10425  0.04073  0.38647  1.0000
  H   H361      1.0  0.11295  0.01758  0.43991  1.0000
  H   H362      1.0  0.10996  0.04785  0.43566  1.0000
  C   C493      1.0  0.09645  0.99471  0.34453  1.0000
  C   C494      1.0  0.09233  0.95881  0.35060  1.0000
  C   C495      1.0  0.08320  0.96954  0.40990  1.0000
  C   C496      1.0  0.08474  0.98749  0.40711  1.0000
  H   H363      1.0  0.07480  0.96408  0.45385  1.0000
  C   C497      1.0  0.07394  0.99846  0.46672  1.0000
  O   O47       1.0  0.06173  0.98996  0.52278  1.0000
  H   H364      1.0  0.06711  0.00786  0.42603  1.0000
  H   H365      1.0  0.08240  0.00539  0.51202  1.0000
  H   H366      1.0  0.05258  0.98550  0.48407  1.0000
  C   C498      1.0  0.90237  0.98530  0.38898  1.0000
  C   C499      1.0  0.90401  0.96749  0.38622  1.0000
  H   H367      1.0  0.89533  0.99065  0.43962  1.0000
  H   H368      1.0  0.89832  0.96039  0.43554  1.0000
  C   C500      1.0  0.91182  0.01351  0.34422  1.0000
  C   C501      1.0  0.91591  0.04942  0.35050  1.0000
  C   C502      1.0  0.92504  0.03868  0.40977  1.0000
  C   C503      1.0  0.92352  0.02073  0.40686  1.0000
  H   H369      1.0  0.93346  0.04413  0.45368  1.0000
  C   C504      1.0  0.93433  0.00975  0.46644  1.0000
  O   O48       1.0  0.94653  0.01825  0.52255  1.0000
  H   H370      1.0  0.94117  0.00036  0.42571  1.0000
  H   H371      1.0  0.92587  0.00281  0.51169  1.0000
  H   H372      1.0  0.95568  0.02272  0.48386  1.0000
  C   C505      1.0  0.98532  0.10587  0.38925  1.0000
  C   C506      1.0  0.96750  0.10422  0.38649  1.0000
  H   H373      1.0  0.99066  0.11292  0.43991  1.0000
  H   H374      1.0  0.96039  0.10993  0.43567  1.0000
  C   C507      1.0  0.01352  0.09641  0.34451  1.0000
  C   C508      1.0  0.04943  0.09230  0.35057  1.0000
  C   C509      1.0  0.03870  0.08317  0.40988  1.0000
  C   C510      1.0  0.02075  0.08471  0.40709  1.0000
  H   H375      1.0  0.04416  0.07477  0.45383  1.0000
  C   C511      1.0  0.00978  0.07390  0.46671  1.0000
  O   O49       1.0  0.01828  0.06170  0.52278  1.0000
  H   H376      1.0  0.00038  0.06707  0.42603  1.0000
  H   H377      1.0  0.00285  0.08236  0.51201  1.0000
  H   H378      1.0  0.02274  0.05255  0.48407  1.0000
  C   C512      1.0  0.02293  0.90234  0.38896  1.0000
  C   C513      1.0  0.04075  0.90398  0.38622  1.0000
  H   H379      1.0  0.01759  0.89529  0.43962  1.0000
  H   H380      1.0  0.04785  0.89829  0.43554  1.0000
  C   C514      1.0  0.99473  0.91178  0.34422  1.0000
  C   C515      1.0  0.95882  0.91588  0.35049  1.0000
  C   C516      1.0  0.96956  0.92502  0.40975  1.0000
  C   C517      1.0  0.98751  0.92349  0.40684  1.0000
  H   H381      1.0  0.96411  0.93344  0.45364  1.0000
  C   C518      1.0  0.99849  0.93430  0.46639  1.0000
  O   O50       1.0  0.98999  0.94651  0.52249  1.0000
  H   H382      1.0  0.00788  0.94113  0.42566  1.0000
  H   H383      1.0  0.00543  0.92585  0.51166  1.0000
  H   H384      1.0  0.98553  0.95566  0.48379  1.0000
  C   C519      1.0  0.17114  0.25722  0.41394  1.0000
  C   C520      1.0  0.17671  0.24022  0.41327  1.0000
  H   H385      1.0  0.16213  0.26079  0.46009  1.0000
  H   H386      1.0  0.17159  0.23197  0.45923  1.0000
  C   C521      1.0  0.17227  0.28645  0.36050  1.0000
  C   C522      1.0  0.16159  0.32121  0.36094  1.0000
  C   C523      1.0  0.17399  0.31519  0.42239  1.0000
  C   C524      1.0  0.17966  0.29805  0.42299  1.0000
  H   H387      1.0  0.17925  0.32370  0.46644  1.0000
  C   C525      1.0  0.19331  0.29238  0.48671  1.0000
  O   O51       1.0  0.20083  0.30522  0.54267  1.0000
  H   H388      1.0  0.20355  0.28612  0.44918  1.0000
  H   H389      1.0  0.18778  0.28296  0.53210  1.0000
  H   H390      1.0  0.20786  0.31267  0.50438  1.0000
  C   C526      1.0  0.83697  0.75107  0.41435  1.0000
  C   C527      1.0  0.83141  0.76808  0.41358  1.0000
  H   H391      1.0  0.84596  0.74750  0.46058  1.0000
  H   H392      1.0  0.83652  0.77633  0.45957  1.0000
  C   C528      1.0  0.83583  0.72184  0.36099  1.0000
  C   C529      1.0  0.84649  0.68707  0.36177  1.0000
  C   C530      1.0  0.83407  0.69312  0.42303  1.0000
  C   C531      1.0  0.82840  0.71026  0.42343  1.0000
  H   H393      1.0  0.82877  0.68461  0.46701  1.0000
  C   C532      1.0  0.81472  0.71595  0.48691  1.0000
  O   O52       1.0  0.80716  0.70312  0.54281  1.0000
  H   H394      1.0  0.80451  0.72221  0.44919  1.0000
  H   H395      1.0  0.82023  0.72537  0.53234  1.0000
  H   H396      1.0  0.80015  0.69567  0.50446  1.0000
  C   C533      1.0  0.75105  0.17123  0.41441  1.0000
  C   C534      1.0  0.76806  0.17678  0.41364  1.0000
  H   H397      1.0  0.74748  0.16223  0.46064  1.0000
  H   H398      1.0  0.77631  0.17167  0.45960  1.0000
  C   C535      1.0  0.72182  0.17238  0.36111  1.0000
  C   C536      1.0  0.68704  0.16174  0.36180  1.0000
  C   C537      1.0  0.69308  0.17417  0.42306  1.0000
  C   C538      1.0  0.71024  0.17982  0.42353  1.0000
  H   H399      1.0  0.68459  0.17946  0.46708  1.0000
  C   C539      1.0  0.71592  0.19350  0.48702  1.0000
  O   O53       1.0  0.70310  0.20106  0.54291  1.0000
  H   H400      1.0  0.72219  0.20370  0.44932  1.0000
  H   H401      1.0  0.72535  0.18798  0.53246  1.0000
  H   H402      1.0  0.69565  0.20808  0.50455  1.0000
  C   C540      1.0  0.25721  0.83705  0.41386  1.0000
  C   C541      1.0  0.24020  0.83148  0.41320  1.0000
  H   H403      1.0  0.26078  0.84606  0.46002  1.0000
  H   H404      1.0  0.23196  0.83659  0.45919  1.0000
  C   C542      1.0  0.28643  0.83594  0.36036  1.0000
  C   C543      1.0  0.32118  0.84666  0.36089  1.0000
  C   C544      1.0  0.31516  0.83425  0.42233  1.0000
  C   C545      1.0  0.29803  0.82855  0.42288  1.0000
  H   H405      1.0  0.32368  0.82898  0.46635  1.0000
  C   C546      1.0  0.29237  0.81490  0.48659  1.0000
  O   O54       1.0  0.30521  0.80739  0.54256  1.0000
  H   H406      1.0  0.28612  0.80466  0.44904  1.0000
  H   H407      1.0  0.28294  0.82042  0.53197  1.0000
  H   H408      1.0  0.31267  0.80037  0.50429  1.0000
  C   C547      1.0  0.81861  0.23425  0.33756  1.0000
  C   C548      1.0  0.81170  0.24659  0.39650  1.0000
  C   C549      1.0  0.81718  0.26382  0.39583  1.0000
  C   C550      1.0  0.83008  0.26884  0.33374  1.0000
  C   C551      1.0  0.84867  0.29180  0.38526  1.0000
  C   C552      1.0  0.85404  0.30891  0.38429  1.0000
  H   H409      1.0  0.85371  0.28375  0.43247  1.0000
  H   H410      1.0  0.86258  0.31292  0.43179  1.0000
  H   H411      1.0  0.80266  0.24289  0.44221  1.0000
  C   C553      1.0  0.80889  0.27573  0.46057  1.0000
  O   O55       1.0  0.81320  0.27079  0.55037  1.0000
  H   H412      1.0  0.81279  0.28895  0.45036  1.0000
  H   H413      1.0  0.79507  0.27519  0.45127  1.0000
  H   H414      1.0  0.80729  0.27858  0.59182  1.0000
  C   C554      1.0  0.18965  0.77400  0.33712  1.0000
  C   C555      1.0  0.19654  0.76165  0.39605  1.0000
  C   C556      1.0  0.19106  0.74442  0.39534  1.0000
  C   C557      1.0  0.17816  0.73941  0.33323  1.0000
  C   C558      1.0  0.15954  0.71647  0.38460  1.0000
  C   C559      1.0  0.15412  0.69937  0.38343  1.0000
  H   H415      1.0  0.15447  0.72452  0.43173  1.0000
  H   H416      1.0  0.14557  0.69536  0.43088  1.0000
  H   H417      1.0  0.20558  0.76534  0.44178  1.0000
  C   C560      1.0  0.19933  0.73250  0.46009  1.0000
  O   O56       1.0  0.19502  0.73745  0.54989  1.0000
  H   H418      1.0  0.19542  0.71928  0.44986  1.0000
  H   H419      1.0  0.21315  0.73303  0.45080  1.0000
  H   H420      1.0  0.20092  0.72965  0.59133  1.0000
  C   C561      1.0  0.23420  0.18968  0.33742  1.0000
  C   C562      1.0  0.24655  0.19659  0.39635  1.0000
  C   C563      1.0  0.26378  0.19111  0.39571  1.0000
  C   C564      1.0  0.26880  0.17821  0.33363  1.0000
  C   C565      1.0  0.29175  0.15961  0.38517  1.0000
  C   C566      1.0  0.30886  0.15423  0.38421  1.0000
  H   H421      1.0  0.28370  0.15457  0.43237  1.0000
  H   H422      1.0  0.31286  0.14569  0.43172  1.0000
  H   H423      1.0  0.24285  0.20563  0.44206  1.0000
  C   C567      1.0  0.27569  0.19939  0.46044  1.0000
  O   O57       1.0  0.27074  0.19509  0.55024  1.0000
  H   H424      1.0  0.28891  0.19550  0.45025  1.0000
  H   H425      1.0  0.27515  0.21322  0.45113  1.0000
  H   H426      1.0  0.27853  0.20101  0.59169  1.0000
  C   C568      1.0  0.77397  0.81865  0.33728  1.0000
  C   C569      1.0  0.76161  0.81175  0.39620  1.0000
  C   C570      1.0  0.74438  0.81724  0.39547  1.0000
  C   C571      1.0  0.73937  0.83014  0.33335  1.0000
  C   C572      1.0  0.71642  0.84875  0.38466  1.0000
  C   C573      1.0  0.69932  0.85415  0.38347  1.0000
  H   H427      1.0  0.72447  0.85382  0.43178  1.0000
  H   H428      1.0  0.69531  0.86271  0.43090  1.0000
  H   H429      1.0  0.76530  0.80271  0.44194  1.0000
  C   C574      1.0  0.73246  0.80897  0.46020  1.0000
  O   O58       1.0  0.73740  0.81327  0.55001  1.0000
  H   H430      1.0  0.71925  0.81287  0.44996  1.0000
  H   H431      1.0  0.73299  0.79514  0.45092  1.0000
  H   H432      1.0  0.72961  0.80737  0.59144  1.0000
  C   C575      1.0  0.38874  0.09909  0.39693  1.0000
  C   C576      1.0  0.38278  0.11606  0.39711  1.0000
  H   H433      1.0  0.39779  0.09566  0.44309  1.0000
  H   H434      1.0  0.38749  0.12427  0.44446  1.0000
  C   C577      1.0  0.38925  0.06991  0.33748  1.0000
  C   C578      1.0  0.40429  0.03634  0.33389  1.0000
  C   C579      1.0  0.39048  0.04030  0.39162  1.0000
  C   C580      1.0  0.38278  0.05674  0.39427  1.0000
  H   H435      1.0  0.38638  0.03109  0.43507  1.0000
  C   C581      1.0  0.36831  0.06038  0.45686  1.0000
  O   O59       1.0  0.36182  0.04627  0.50763  1.0000
  H   H436      1.0  0.35772  0.06598  0.41914  1.0000
  H   H437      1.0  0.37261  0.06983  0.50570  1.0000
  H   H438      1.0  0.35593  0.03852  0.46586  1.0000
  C   C582      1.0  0.61951  0.90935  0.39566  1.0000
  C   C583      1.0  0.62543  0.89236  0.39580  1.0000
  H   H439      1.0  0.61046  0.91280  0.44180  1.0000
  H   H440      1.0  0.62071  0.88417  0.44317  1.0000
  C   C584      1.0  0.61909  0.93855  0.33635  1.0000
  C   C585      1.0  0.60410  0.97214  0.33326  1.0000
  C   C586      1.0  0.61786  0.96812  0.39118  1.0000
  C   C587      1.0  0.62552  0.95166  0.39366  1.0000
  H   H441      1.0  0.62190  0.97728  0.43511  1.0000
  C   C588      1.0  0.63991  0.94794  0.45660  1.0000
  O   O60       1.0  0.64638  0.96199  0.50786  1.0000
  H   H442      1.0  0.65053  0.94234  0.41908  1.0000
  H   H443      1.0  0.63554  0.93846  0.50513  1.0000
  H   H444      1.0  0.65233  0.96977  0.46643  1.0000
  C   C589      1.0  0.90916  0.38880  0.39692  1.0000
  C   C590      1.0  0.89219  0.38284  0.39710  1.0000
  H   H445      1.0  0.91260  0.39784  0.44310  1.0000
  H   H446      1.0  0.88399  0.38754  0.44445  1.0000
  C   C591      1.0  0.93835  0.38930  0.33748  1.0000
  C   C592      1.0  0.97191  0.40434  0.33394  1.0000
  C   C593      1.0  0.96796  0.39053  0.39163  1.0000
  C   C594      1.0  0.95151  0.38283  0.39427  1.0000
  H   H447      1.0  0.97717  0.38643  0.43509  1.0000
  C   C595      1.0  0.94787  0.36836  0.45684  1.0000
  O   O61       1.0  0.96198  0.36187  0.50760  1.0000
  H   H448      1.0  0.94227  0.35778  0.41910  1.0000
  H   H449      1.0  0.93842  0.37266  0.50568  1.0000
  H   H450      1.0  0.96974  0.35598  0.46583  1.0000
  C   C596      1.0  0.09889  0.61957  0.39568  1.0000
  C   C597      1.0  0.11588  0.62548  0.39583  1.0000
  H   H451      1.0  0.09544  0.61052  0.44182  1.0000
  H   H452      1.0  0.12407  0.62076  0.44321  1.0000
  C   C598      1.0  0.06969  0.61914  0.33635  1.0000
  C   C599      1.0  0.03610  0.60416  0.33320  1.0000
  C   C600      1.0  0.04013  0.61791  0.39120  1.0000
  C   C601      1.0  0.05659  0.62557  0.39369  1.0000
  H   H453      1.0  0.03097  0.62195  0.43515  1.0000
  C   C602      1.0  0.06031  0.63996  0.45668  1.0000
  O   O62       1.0  0.04625  0.64642  0.50797  1.0000
  H   H454      1.0  0.06591  0.65057  0.41920  1.0000
  H   H455      1.0  0.06978  0.63558  0.50519  1.0000
  H   H456      1.0  0.03848  0.65237  0.46656  1.0000
  C   C603      1.0  0.63750  0.12195  0.34876  1.0000
  C   C604      1.0  0.64359  0.10973  0.41121  1.0000
  C   C605      1.0  0.63780  0.09257  0.41281  1.0000
  C   C606      1.0  0.62537  0.08718  0.34890  1.0000
  C   C607      1.0  0.60519  0.06601  0.40546  1.0000
  C   C608      1.0  0.59800  0.04958  0.40671  1.0000
  H   H457      1.0  0.60040  0.07504  0.44829  1.0000
  H   H458      1.0  0.58827  0.04728  0.45087  1.0000
  H   H459      1.0  0.65246  0.11346  0.45777  1.0000
  C   C609      1.0  0.64532  0.08103  0.48186  1.0000
  O   O63       1.0  0.64027  0.08668  0.56938  1.0000
  H   H460      1.0  0.64135  0.06779  0.47329  1.0000
  H   H461      1.0  0.65922  0.08134  0.47599  1.0000
  H   H462      1.0  0.64569  0.07913  0.61382  1.0000
  C   C610      1.0  0.37068  0.88648  0.34712  1.0000
  C   C611      1.0  0.36461  0.89870  0.40969  1.0000
  C   C612      1.0  0.37039  0.91586  0.41119  1.0000
  C   C613      1.0  0.38276  0.92127  0.34700  1.0000
  C   C614      1.0  0.40313  0.94236  0.40254  1.0000
  C   C615      1.0  0.41034  0.95878  0.40377  1.0000
  H   H463      1.0  0.40804  0.93327  0.44465  1.0000
  H   H464      1.0  0.42020  0.96100  0.44718  1.0000
  H   H465      1.0  0.35579  0.89495  0.45642  1.0000
  C   C616      1.0  0.36293  0.92738  0.48051  1.0000
  O   O64       1.0  0.36805  0.92170  0.56787  1.0000
  H   H466      1.0  0.36691  0.94062  0.47198  1.0000
  H   H467      1.0  0.34903  0.92708  0.47496  1.0000
  H   H468      1.0  0.36267  0.92924  0.61250  1.0000
  C   C617      1.0  0.12177  0.37072  0.34714  1.0000
  C   C618      1.0  0.10956  0.36466  0.40969  1.0000
  C   C619      1.0  0.09239  0.37044  0.41119  1.0000
  C   C620      1.0  0.08699  0.38281  0.34702  1.0000
  C   C621      1.0  0.06590  0.40318  0.40255  1.0000
  C   C622      1.0  0.04948  0.41039  0.40379  1.0000
  H   H469      1.0  0.07499  0.40809  0.44465  1.0000
  H   H470      1.0  0.04725  0.42025  0.44720  1.0000
  H   H471      1.0  0.11330  0.35583  0.45643  1.0000
  C   C623      1.0  0.08087  0.36298  0.48050  1.0000
  O   O65       1.0  0.08655  0.36810  0.56787  1.0000
  H   H472      1.0  0.06763  0.36696  0.47196  1.0000
  H   H473      1.0  0.08117  0.34908  0.47492  1.0000
  H   H474      1.0  0.07901  0.36272  0.61248  1.0000
  C   C624      1.0  0.88629  0.63754  0.34877  1.0000
  C   C625      1.0  0.89851  0.64363  0.41123  1.0000
  C   C626      1.0  0.91567  0.63784  0.41283  1.0000
  C   C627      1.0  0.92106  0.62542  0.34890  1.0000
  C   C628      1.0  0.94224  0.60524  0.40544  1.0000
  C   C629      1.0  0.95867  0.59805  0.40669  1.0000
  H   H475      1.0  0.93321  0.60045  0.44828  1.0000
  H   H476      1.0  0.96096  0.58831  0.45083  1.0000
  H   H477      1.0  0.89478  0.65250  0.45778  1.0000
  C   C630      1.0  0.92720  0.64536  0.48190  1.0000
  O   O66       1.0  0.92155  0.64031  0.56941  1.0000
  H   H478      1.0  0.94044  0.64139  0.47333  1.0000
  H   H479      1.0  0.92689  0.65926  0.47605  1.0000
  H   H480      1.0  0.92910  0.64572  0.61386  1.0000
  C   C631      1.0  0.48597  0.01405  0.39667  1.0000
  C   C632      1.0  0.46804  0.01441  0.39672  1.0000
  H   H481      1.0  0.49237  0.02150  0.44202  1.0000
  H   H482      1.0  0.46197  0.02198  0.44268  1.0000
  C   C633      1.0  0.51318  0.00344  0.34145  1.0000
  C   C634      1.0  0.54966  0.00402  0.34174  1.0000
  C   C635      1.0  0.54042  0.99272  0.39779  1.0000
  C   C636      1.0  0.52235  0.99208  0.39844  1.0000
  H   H483      1.0  0.54712  0.98496  0.44024  1.0000
  C   C637      1.0  0.51308  0.97988  0.45841  1.0000
  O   O67       1.0  0.52331  0.96829  0.50984  1.0000
  H   H484      1.0  0.50407  0.97238  0.41854  1.0000
  H   H485      1.0  0.50572  0.98731  0.50681  1.0000
  H   H486      1.0  0.52840  0.95997  0.46818  1.0000
  C   C638      1.0  0.99421  0.48602  0.39663  1.0000
  C   C639      1.0  0.99385  0.46810  0.39667  1.0000
  H   H487      1.0  0.98677  0.49243  0.44197  1.0000
  H   H488      1.0  0.98629  0.46203  0.44268  1.0000
  C   C640      1.0  0.00482  0.51323  0.34138  1.0000
  C   C641      1.0  0.00423  0.54971  0.34170  1.0000
  C   C642      1.0  0.01554  0.54048  0.39772  1.0000
  C   C643      1.0  0.01618  0.52240  0.39838  1.0000
  H   H489      1.0  0.02329  0.54717  0.44020  1.0000
  C   C644      1.0  0.02838  0.51314  0.45836  1.0000
  O   O68       1.0  0.03997  0.52337  0.50978  1.0000
  H   H490      1.0  0.03588  0.50413  0.41849  1.0000
  H   H491      1.0  0.02095  0.50578  0.50676  1.0000
  H   H492      1.0  0.04829  0.52846  0.46812  1.0000
  C   C645      1.0  0.27089  0.41012  0.33908  1.0000
  C   C646      1.0  0.26541  0.39648  0.39433  1.0000
  C   C647      1.0  0.24838  0.39035  0.39374  1.0000
  C   C648      1.0  0.23622  0.39820  0.33569  1.0000
  C   C649      1.0  0.20679  0.39694  0.39112  1.0000
  C   C650      1.0  0.19022  0.38999  0.39003  1.0000
  H   H493      1.0  0.21010  0.40490  0.44280  1.0000
  H   H494      1.0  0.18210  0.39278  0.44184  1.0000
  H   H495      1.0  0.27404  0.39092  0.43682  1.0000
  C   C651      1.0  0.24433  0.37567  0.45373  1.0000
  O   O69       1.0  0.24596  0.38092  0.54548  1.0000
  H   H496      1.0  0.23146  0.37074  0.44319  1.0000
  H   H497      1.0  0.25320  0.36524  0.43960  1.0000
  H   H498      1.0  0.24360  0.37095  0.58369  1.0000
  C   C652      1.0  0.73717  0.59821  0.33961  1.0000
  C   C653      1.0  0.74263  0.61185  0.39489  1.0000
  C   C654      1.0  0.75967  0.61799  0.39443  1.0000
  C   C655      1.0  0.77184  0.61012  0.33655  1.0000
  C   C656      1.0  0.80124  0.61140  0.39232  1.0000
  C   C657      1.0  0.81783  0.61831  0.39124  1.0000
  H   H499      1.0  0.79792  0.60344  0.44399  1.0000
  H   H500      1.0  0.82592  0.61555  0.44319  1.0000
  H   H501      1.0  0.73398  0.61743  0.43728  1.0000
  C   C658      1.0  0.76370  0.63267  0.45443  1.0000
  O   O70       1.0  0.76204  0.62742  0.54618  1.0000
  H   H502      1.0  0.77656  0.63759  0.44397  1.0000
  H   H503      1.0  0.75483  0.64309  0.44021  1.0000
  H   H504      1.0  0.76439  0.63740  0.58438  1.0000
  C   C659      1.0  0.59812  0.27105  0.33961  1.0000
  C   C660      1.0  0.61176  0.26559  0.39487  1.0000
  C   C661      1.0  0.61791  0.24856  0.39438  1.0000
  C   C662      1.0  0.61005  0.23639  0.33643  1.0000
  C   C663      1.0  0.61133  0.20698  0.39220  1.0000
  C   C664      1.0  0.61828  0.19042  0.39124  1.0000
  H   H505      1.0  0.60339  0.21031  0.44393  1.0000
  H   H506      1.0  0.61551  0.18232  0.44317  1.0000
  H   H507      1.0  0.61733  0.27424  0.43729  1.0000
  C   C665      1.0  0.63259  0.24453  0.45435  1.0000
  O   O71       1.0  0.62735  0.24617  0.54612  1.0000
  H   H508      1.0  0.63753  0.23167  0.44387  1.0000
  H   H509      1.0  0.64301  0.25341  0.44016  1.0000
  H   H510      1.0  0.63732  0.24384  0.58431  1.0000
  C   C666      1.0  0.41002  0.73733  0.33907  1.0000
  C   C667      1.0  0.39638  0.74281  0.39433  1.0000
  C   C668      1.0  0.39025  0.75985  0.39376  1.0000
  C   C669      1.0  0.39812  0.77201  0.33579  1.0000
  C   C670      1.0  0.39686  0.80143  0.39132  1.0000
  C   C671      1.0  0.38995  0.81802  0.39011  1.0000
  H   H511      1.0  0.40482  0.79812  0.44299  1.0000
  H   H512      1.0  0.39272  0.82612  0.44199  1.0000
  H   H513      1.0  0.39080  0.73418  0.43678  1.0000
  C   C672      1.0  0.37557  0.76390  0.45377  1.0000
  O   O72       1.0  0.38083  0.76226  0.54552  1.0000
  H   H514      1.0  0.37066  0.77677  0.44325  1.0000
  H   H515      1.0  0.36515  0.75504  0.43962  1.0000
  H   H516      1.0  0.37086  0.76462  0.58373  1.0000
  C   C673      1.0  0.76687  0.41138  0.40336  1.0000
  C   C674      1.0  0.74993  0.41726  0.40172  1.0000
  H   H517      1.0  0.77526  0.41698  0.44708  1.0000
  H   H518      1.0  0.74658  0.42686  0.44478  1.0000
  C   C675      1.0  0.78935  0.39172  0.35720  1.0000
  C   C676      1.0  0.82303  0.37761  0.35985  1.0000
  C   C677      1.0  0.81085  0.37339  0.42655  1.0000
  C   C678      1.0  0.79402  0.38001  0.42621  1.0000
  H   H519      1.0  0.81423  0.36465  0.47436  1.0000
  C   C679      1.0  0.78133  0.37434  0.49519  1.0000
  O   O73       1.0  0.78676  0.36150  0.55757  1.0000
  H   H520      1.0  0.76980  0.36973  0.46165  1.0000
  H   H521      1.0  0.77780  0.38541  0.53544  1.0000
  H   H522      1.0  0.78781  0.35064  0.52479  1.0000
  C   C680      1.0  0.24124  0.59693  0.40264  1.0000
  C   C681      1.0  0.25819  0.59106  0.40111  1.0000
  H   H523      1.0  0.23284  0.59132  0.44627  1.0000
  H   H524      1.0  0.26153  0.58146  0.44421  1.0000
  C   C682      1.0  0.21876  0.61657  0.35633  1.0000
  C   C683      1.0  0.18506  0.63062  0.35885  1.0000
  C   C684      1.0  0.19720  0.63483  0.42577  1.0000
  C   C685      1.0  0.21404  0.62824  0.42547  1.0000
  H   H525      1.0  0.19380  0.64355  0.47359  1.0000
  C   C686      1.0  0.22671  0.63390  0.49465  1.0000
  O   O74       1.0  0.22124  0.64670  0.55714  1.0000
  H   H526      1.0  0.23824  0.63853  0.46129  1.0000
  H   H527      1.0  0.23023  0.62281  0.53481  1.0000
  H   H528      1.0  0.22018  0.65757  0.52449  1.0000
  C   C687      1.0  0.41130  0.24140  0.40340  1.0000
  C   C688      1.0  0.41717  0.25835  0.40175  1.0000
  H   H529      1.0  0.41690  0.23301  0.44713  1.0000
  H   H530      1.0  0.42677  0.26170  0.44481  1.0000
  C   C689      1.0  0.39166  0.21891  0.35724  1.0000
  C   C690      1.0  0.37756  0.18523  0.35989  1.0000
  C   C691      1.0  0.37334  0.19740  0.42663  1.0000
  C   C692      1.0  0.37995  0.21423  0.42629  1.0000
  H   H531      1.0  0.36461  0.19401  0.47446  1.0000
  C   C693      1.0  0.37428  0.22692  0.49531  1.0000
  O   O75       1.0  0.36146  0.22148  0.55771  1.0000
  H   H532      1.0  0.36967  0.23845  0.46180  1.0000
  H   H533      1.0  0.38536  0.23044  0.53554  1.0000
  H   H534      1.0  0.35060  0.22042  0.52496  1.0000
  C   C694      1.0  0.59684  0.76702  0.40260  1.0000
  C   C695      1.0  0.59096  0.75008  0.40106  1.0000
  H   H535      1.0  0.59124  0.77543  0.44622  1.0000
  H   H536      1.0  0.58136  0.74674  0.44417  1.0000
  C   C696      1.0  0.61650  0.78949  0.35630  1.0000
  C   C697      1.0  0.63059  0.82318  0.35881  1.0000
  C   C698      1.0  0.63479  0.81103  0.42570  1.0000
  C   C699      1.0  0.62818  0.79420  0.42540  1.0000
  H   H537      1.0  0.64353  0.81442  0.47349  1.0000
  C   C700      1.0  0.63384  0.78152  0.49453  1.0000
  O   O76       1.0  0.64665  0.78698  0.55698  1.0000
  H   H538      1.0  0.63846  0.76999  0.46112  1.0000
  H   H539      1.0  0.62275  0.77801  0.53471  1.0000
  H   H540      1.0  0.65752  0.78802  0.52430  1.0000
  C   C701      1.0  0.30383  0.48680  0.40701  1.0000
  C   C702      1.0  0.30241  0.46892  0.40932  1.0000
  H   H541      1.0  0.29688  0.49380  0.45215  1.0000
  H   H542      1.0  0.29459  0.46355  0.45655  1.0000
  C   C703      1.0  0.31399  0.51336  0.34062  1.0000
  C   C704      1.0  0.31085  0.54993  0.33597  1.0000
  C   C705      1.0  0.32270  0.54173  0.39336  1.0000
  C   C706      1.0  0.32453  0.52368  0.39673  1.0000
  H   H543      1.0  0.32967  0.54912  0.43639  1.0000
  C   C707      1.0  0.33699  0.51554  0.45951  1.0000
  O   O77       1.0  0.34800  0.52677  0.50856  1.0000
  H   H544      1.0  0.34495  0.50653  0.42224  1.0000
  H   H545      1.0  0.32982  0.50831  0.50946  1.0000
  H   H546      1.0  0.35607  0.53193  0.46577  1.0000
  C   C708      1.0  0.70422  0.52155  0.40744  1.0000
  C   C709      1.0  0.70562  0.53943  0.40975  1.0000
  H   H547      1.0  0.71115  0.51456  0.45267  1.0000
  H   H548      1.0  0.71342  0.54481  0.45705  1.0000
  C   C710      1.0  0.69411  0.49497  0.34095  1.0000
  C   C711      1.0  0.69729  0.45841  0.33627  1.0000
  C   C712      1.0  0.68540  0.46660  0.39353  1.0000
  C   C713      1.0  0.68357  0.48464  0.39695  1.0000
  H   H549      1.0  0.67845  0.45920  0.43658  1.0000
  C   C714      1.0  0.67109  0.49277  0.45966  1.0000
  O   O78       1.0  0.66006  0.48153  0.50858  1.0000
  H   H550      1.0  0.66312  0.50178  0.42233  1.0000
  H   H551      1.0  0.67824  0.50001  0.50968  1.0000
  H   H552      1.0  0.65201  0.47637  0.46571  1.0000
  C   C715      1.0  0.52144  0.30400  0.40729  1.0000
  C   C716      1.0  0.53932  0.30258  0.40962  1.0000
  H   H553      1.0  0.51444  0.29707  0.45248  1.0000
  H   H554      1.0  0.54469  0.29478  0.45691  1.0000
  C   C717      1.0  0.49487  0.31414  0.34082  1.0000
  C   C718      1.0  0.45831  0.31099  0.33621  1.0000
  C   C719      1.0  0.46651  0.32286  0.39353  1.0000
  C   C720      1.0  0.48455  0.32468  0.39689  1.0000
  H   H555      1.0  0.45911  0.32982  0.43654  1.0000
  C   C721      1.0  0.49269  0.33715  0.45961  1.0000
  O   O79       1.0  0.48146  0.34817  0.50861  1.0000
  H   H556      1.0  0.50170  0.34512  0.42229  1.0000
  H   H557      1.0  0.49993  0.32999  0.50959  1.0000
  H   H558      1.0  0.47630  0.35624  0.46578  1.0000
  C   C722      1.0  0.48668  0.70439  0.40712  1.0000
  C   C723      1.0  0.46880  0.70580  0.40941  1.0000
  H   H559      1.0  0.49367  0.71134  0.45229  1.0000
  H   H560      1.0  0.46342  0.71362  0.45663  1.0000
  C   C724      1.0  0.51325  0.69425  0.34074  1.0000
  C   C725      1.0  0.54982  0.69742  0.33603  1.0000
  C   C726      1.0  0.54163  0.68554  0.39337  1.0000
  C   C727      1.0  0.52358  0.68372  0.39680  1.0000
  H   H561      1.0  0.54902  0.67860  0.43646  1.0000
  C   C728      1.0  0.51545  0.67125  0.45958  1.0000
  O   O80       1.0  0.52669  0.66024  0.50858  1.0000
  H   H562      1.0  0.50645  0.66329  0.42231  1.0000
  H   H563      1.0  0.50822  0.67842  0.50956  1.0000
  H   H564      1.0  0.53185  0.65218  0.46576  1.0000
  C   C729      1.0  0.33338  0.39846  0.33952  1.0000
  C   C730      1.0  0.34739  0.39998  0.39912  1.0000
  C   C731      1.0  0.36087  0.38786  0.40230  1.0000
  C   C732      1.0  0.36060  0.37362  0.34259  1.0000
  C   C733      1.0  0.37132  0.34614  0.39678  1.0000
  C   C734      1.0  0.38339  0.33284  0.39798  1.0000
  H   H565      1.0  0.36080  0.34516  0.43722  1.0000
  H   H566      1.0  0.38125  0.32277  0.44020  1.0000
  H   H567      1.0  0.34757  0.40997  0.44340  1.0000
  C   C735      1.0  0.37465  0.39071  0.46960  1.0000
  O   O81       1.0  0.36768  0.38930  0.55822  1.0000
  H   H568      1.0  0.38508  0.38158  0.46285  1.0000
  H   H569      1.0  0.38002  0.40344  0.45967  1.0000
  H   H570      1.0  0.37691  0.39161  0.60134  1.0000
  C   C736      1.0  0.67468  0.60988  0.33959  1.0000
  C   C737      1.0  0.66067  0.60838  0.39920  1.0000
  C   C738      1.0  0.64720  0.62051  0.40235  1.0000
  C   C739      1.0  0.64748  0.63474  0.34259  1.0000
  C   C740      1.0  0.63679  0.66224  0.39665  1.0000
  C   C741      1.0  0.62474  0.67556  0.39778  1.0000
  H   H571      1.0  0.64731  0.66323  0.43706  1.0000
  H   H572      1.0  0.62689  0.68563  0.43994  1.0000
  H   H573      1.0  0.66049  0.59839  0.44350  1.0000
  C   C742      1.0  0.63342  0.61768  0.46965  1.0000
  O   O82       1.0  0.64039  0.61908  0.55826  1.0000
  H   H574      1.0  0.62300  0.62682  0.46288  1.0000
  H   H575      1.0  0.62804  0.60495  0.45973  1.0000
  H   H576      1.0  0.63116  0.61678  0.60138  1.0000
  C   C743      1.0  0.60977  0.33354  0.33963  1.0000
  C   C744      1.0  0.60827  0.34754  0.39926  1.0000
  C   C745      1.0  0.62040  0.36102  0.40242  1.0000
  C   C746      1.0  0.63462  0.36074  0.34267  1.0000
  C   C747      1.0  0.66211  0.37144  0.39684  1.0000
  C   C748      1.0  0.67542  0.38350  0.39801  1.0000
  H   H577      1.0  0.66309  0.36093  0.43729  1.0000
  H   H578      1.0  0.68549  0.38136  0.44023  1.0000
  H   H579      1.0  0.59828  0.34773  0.44357  1.0000
  C   C749      1.0  0.61756  0.37479  0.46974  1.0000
  O   O83       1.0  0.61898  0.36782  0.55835  1.0000
  H   H580      1.0  0.62670  0.38522  0.46297  1.0000
  H   H581      1.0  0.60483  0.38017  0.45986  1.0000
  H   H582      1.0  0.61667  0.37705  0.60149  1.0000
  C   C750      1.0  0.39835  0.67484  0.33944  1.0000
  C   C751      1.0  0.39986  0.66083  0.39905  1.0000
  C   C752      1.0  0.38774  0.64735  0.40222  1.0000
  C   C753      1.0  0.37351  0.64762  0.34250  1.0000
  C   C754      1.0  0.34601  0.63691  0.39659  1.0000
  C   C755      1.0  0.33270  0.62485  0.39776  1.0000
  H   H583      1.0  0.34502  0.64744  0.43700  1.0000
  H   H584      1.0  0.32263  0.62700  0.43991  1.0000
  H   H585      1.0  0.40986  0.66065  0.44332  1.0000
  C   C756      1.0  0.39059  0.63357  0.46952  1.0000
  O   O84       1.0  0.38919  0.64054  0.55813  1.0000
  H   H586      1.0  0.38145  0.62315  0.46277  1.0000
  H   H587      1.0  0.40332  0.62819  0.45955  1.0000
  H   H588      1.0  0.39150  0.63131  0.60125  1.0000
