data_image0
_chemical_formula_structural       C4HONCHNC3H2CNCHCNCOCH3C4HONCHNC3H2CNCHCNCOCH3C3HOCOH2C2H2COCH2CH2C3HOCOH2C2H2COCH2CH2C5HC3HNCHNCHC4H2C2NCOCHC2NCOCHC5HC3HNCHNCHC4H2C2NCOCHC2NCOCHC4OHC3OHCONCHNCHC2H3C2H4C2NCOCH3C2NCOCH3C4OHC3OHCONCHNCHC2H3C2H4C2NCOCH3C2NCOCH3C4HOC4OHC4HOC4OHC4HOC4OHNCHNCHNCHNCHNCHNCHC4H4C4H4C4H4C2NCOCH3C2NCOCH3C2NCOCH3C2NCOCH3C2NCOCH3C2NCOCH3C4HOC4OHC4HOC4OHC4HOC4OHNCHNCHNCHNCHNCHNCHC4H4C4H4C4H4C2NCOCH3C2NCOCH3C2NCOCH3C2NCOCH3C2NCOCH3C2NCOCH3
_chemical_formula_sum              "C264 H168 O48 N48"
_cell_length_a       46.5046
_cell_length_b       46.5046
_cell_length_c       14.8171
_cell_angle_alpha    90
_cell_angle_beta     90
_cell_angle_gamma    120

_space_group_name_H-M_alt    "P 1"
_space_group_IT_number       1

loop_
  _space_group_symop_operation_xyz
  'x, y, z'

loop_
  _atom_site_type_symbol
  _atom_site_label
  _atom_site_symmetry_multiplicity
  _atom_site_fract_x
  _atom_site_fract_y
  _atom_site_fract_z
  _atom_site_occupancy
  C   C1        1.0  0.02736  0.26514  0.34148  1.0000
  C   C2        1.0  0.04675  0.30071  0.34258  1.0000
  C   C3        1.0  0.08190  0.31873  0.34335  1.0000
  C   C4        1.0  0.09912  0.30090  0.34513  1.0000
  H   H1        1.0  0.03568  0.31481  0.34305  1.0000
  O   O1        1.0  0.13302  0.31782  0.34688  1.0000
  N   N1        1.0  0.14692  0.25138  0.26673  1.0000
  C   C5        1.0  0.11677  0.24939  0.26173  1.0000
  H   H2        1.0  0.10928  0.25353  0.20060  1.0000
  N   N2        1.0  0.11687  0.36820  0.26586  1.0000
  C   C6        1.0  0.14501  0.39832  0.25996  1.0000
  C   C7        1.0  0.08180  0.26584  0.34252  1.0000
  C   C8        1.0  0.04665  0.24883  0.34063  1.0000
  H   H3        1.0  0.13919  0.32063  0.41109  1.0000
  H   H4        1.0  0.03549  0.22367  0.33859  1.0000
  C   C9        1.0  0.10035  0.24926  0.34225  1.0000
  N   N3        1.0  0.11660  0.25057  0.41999  1.0000
  C   C10       1.0  0.14484  0.24871  0.42547  1.0000
  H   H5        1.0  0.12615  0.20934  0.56780  1.0000
  C   C11       1.0  0.10051  0.35386  0.34404  1.0000
  N   N4        1.0  0.14652  0.39925  0.41818  1.0000
  C   C12       1.0  0.11644  0.37099  0.42435  1.0000
  O   O2        1.0  0.10713  0.35598  0.50691  1.0000
  C   C13       1.0  0.08445  0.36344  0.55289  1.0000
  H   H6        1.0  0.07834  0.35069  0.61777  1.0000
  H   H7        1.0  0.06140  0.35463  0.51486  1.0000
  H   H8        1.0  0.09562  0.39007  0.56562  1.0000
  C   C14       1.0  0.02736  0.76514  0.34148  1.0000
  C   C15       1.0  0.04675  0.80071  0.34258  1.0000
  C   C16       1.0  0.08190  0.81873  0.34335  1.0000
  C   C17       1.0  0.09912  0.80090  0.34513  1.0000
  H   H9        1.0  0.03568  0.81481  0.34305  1.0000
  O   O3        1.0  0.13302  0.81782  0.34688  1.0000
  N   N5        1.0  0.14692  0.75138  0.26673  1.0000
  C   C18       1.0  0.11677  0.74939  0.26173  1.0000
  H   H10       1.0  0.10928  0.75352  0.20060  1.0000
  N   N6        1.0  0.11687  0.86820  0.26586  1.0000
  C   C19       1.0  0.14501  0.89832  0.25996  1.0000
  C   C20       1.0  0.08180  0.76584  0.34252  1.0000
  C   C21       1.0  0.04665  0.74883  0.34063  1.0000
  H   H11       1.0  0.13919  0.82063  0.41109  1.0000
  H   H12       1.0  0.03549  0.72367  0.33859  1.0000
  C   C22       1.0  0.10035  0.74926  0.34225  1.0000
  N   N7        1.0  0.11660  0.75057  0.41999  1.0000
  C   C23       1.0  0.14484  0.74871  0.42547  1.0000
  H   H13       1.0  0.12615  0.70934  0.56780  1.0000
  C   C24       1.0  0.10051  0.85386  0.34404  1.0000
  N   N8        1.0  0.14652  0.89925  0.41818  1.0000
  C   C25       1.0  0.11644  0.87099  0.42435  1.0000
  O   O4        1.0  0.10713  0.85598  0.50691  1.0000
  C   C26       1.0  0.08445  0.86344  0.55289  1.0000
  H   H14       1.0  0.07834  0.85069  0.61777  1.0000
  H   H15       1.0  0.06140  0.85463  0.51486  1.0000
  H   H16       1.0  0.09562  0.89007  0.56562  1.0000
  C   C27       1.0  0.21470  0.24899  0.34298  1.0000
  C   C28       1.0  0.19669  0.26613  0.34323  1.0000
  C   C29       1.0  0.21454  0.30119  0.34414  1.0000
  H   H17       1.0  0.20061  0.22383  0.34415  1.0000
  O   O5        1.0  0.19762  0.31818  0.34531  1.0000
  C   C30       1.0  0.21422  0.41636  0.34178  1.0000
  O   O6        1.0  0.19725  0.38245  0.34255  1.0000
  H   H18       1.0  0.15657  0.40552  0.19868  1.0000
  H   H19       1.0  0.19482  0.32170  0.40941  1.0000
  C   C31       1.0  0.19649  0.43369  0.34007  1.0000
  C   C32       1.0  0.21463  0.46885  0.33992  1.0000
  H   H20       1.0  0.19360  0.37604  0.40657  1.0000
  H   H21       1.0  0.20063  0.48001  0.33871  1.0000
  C   C33       1.0  0.16156  0.24963  0.34460  1.0000
  O   O7        1.0  0.16019  0.25463  0.50758  1.0000
  C   C34       1.0  0.15273  0.22461  0.55421  1.0000
  H   H22       1.0  0.16576  0.23143  0.61868  1.0000
  H   H23       1.0  0.16125  0.21012  0.51621  1.0000
  C   C35       1.0  0.16136  0.41515  0.33999  1.0000
  H   H24       1.0  0.21331  0.05841  0.51655  1.0000
  H   H25       1.0  0.21220  0.09267  0.56745  1.0000
  C   C36       1.0  0.21470  0.74899  0.34298  1.0000
  C   C37       1.0  0.19669  0.76613  0.34323  1.0000
  C   C38       1.0  0.21454  0.80119  0.34414  1.0000
  H   H26       1.0  0.20061  0.72383  0.34415  1.0000
  O   O8        1.0  0.19762  0.81818  0.34531  1.0000
  C   C39       1.0  0.21422  0.91636  0.34178  1.0000
  O   O9        1.0  0.19725  0.88245  0.34255  1.0000
  H   H27       1.0  0.15657  0.90552  0.19868  1.0000
  H   H28       1.0  0.19482  0.82170  0.40941  1.0000
  C   C40       1.0  0.19649  0.93369  0.34007  1.0000
  C   C41       1.0  0.21463  0.96885  0.33992  1.0000
  H   H29       1.0  0.19360  0.87604  0.40657  1.0000
  H   H30       1.0  0.20063  0.98001  0.33871  1.0000
  C   C42       1.0  0.16156  0.74963  0.34460  1.0000
  O   O10       1.0  0.16019  0.75463  0.50758  1.0000
  C   C43       1.0  0.15273  0.72461  0.55421  1.0000
  H   H31       1.0  0.16576  0.73143  0.61868  1.0000
  H   H32       1.0  0.16125  0.71012  0.51621  1.0000
  C   C44       1.0  0.16136  0.91515  0.33999  1.0000
  H   H33       1.0  0.21331  0.55841  0.51655  1.0000
  H   H34       1.0  0.21220  0.59267  0.56745  1.0000
  C   C45       1.0  0.25028  0.26516  0.34140  1.0000
  C   C46       1.0  0.26824  0.24705  0.34133  1.0000
  C   C47       1.0  0.25022  0.48813  0.34107  1.0000
  C   C48       1.0  0.26641  0.46874  0.34194  1.0000
  C   C49       1.0  0.24928  0.43359  0.34135  1.0000
  H   H35       1.0  0.29158  0.47982  0.34329  1.0000
  C   C50       1.0  0.26834  0.02421  0.34156  1.0000
  C   C51       1.0  0.26930  0.07876  0.34416  1.0000
  C   C52       1.0  0.25216  0.04361  0.34317  1.0000
  H   H36       1.0  0.22699  0.03254  0.34382  1.0000
  N   N9        1.0  0.26423  0.39856  0.26457  1.0000
  C   C53       1.0  0.26619  0.37039  0.25985  1.0000
  H   H37       1.0  0.26233  0.35880  0.19875  1.0000
  N   N10       1.0  0.25459  0.11365  0.26701  1.0000
  C   C54       1.0  0.25258  0.14178  0.26119  1.0000
  H   H38       1.0  0.25680  0.15331  0.19990  1.0000
  C   C55       1.0  0.24960  0.31891  0.34153  1.0000
  C   C56       1.0  0.26659  0.30075  0.33988  1.0000
  C   C57       1.0  0.25193  0.21145  0.34050  1.0000
  C   C58       1.0  0.26893  0.19330  0.34153  1.0000
  H   H39       1.0  0.29175  0.31474  0.33756  1.0000
  H   H40       1.0  0.22676  0.19745  0.33895  1.0000
  C   C59       1.0  0.26576  0.41494  0.34223  1.0000
  C   C60       1.0  0.26619  0.35402  0.34028  1.0000
  N   N11       1.0  0.26469  0.36900  0.41781  1.0000
  C   C61       1.0  0.26656  0.39912  0.42327  1.0000
  O   O11       1.0  0.26037  0.40830  0.50539  1.0000
  C   C62       1.0  0.29022  0.43085  0.55265  1.0000
  H   H41       1.0  0.28318  0.43686  0.61708  1.0000
  C   C63       1.0  0.25279  0.09738  0.34520  1.0000
  C   C64       1.0  0.25233  0.15816  0.34134  1.0000
  N   N12       1.0  0.25360  0.14346  0.41956  1.0000
  C   C65       1.0  0.25181  0.11339  0.42560  1.0000
  O   O12       1.0  0.25767  0.10413  0.50802  1.0000
  C   C66       1.0  0.22762  0.08149  0.55442  1.0000
  H   H42       1.0  0.23440  0.07541  0.61916  1.0000
  C   C67       1.0  0.25028  0.76516  0.34140  1.0000
  C   C68       1.0  0.26824  0.74704  0.34133  1.0000
  C   C69       1.0  0.25022  0.98813  0.34107  1.0000
  C   C70       1.0  0.26641  0.96874  0.34194  1.0000
  C   C71       1.0  0.24928  0.93359  0.34135  1.0000
  H   H43       1.0  0.29157  0.97981  0.34329  1.0000
  C   C72       1.0  0.26834  0.52421  0.34156  1.0000
  C   C73       1.0  0.26930  0.57876  0.34416  1.0000
  C   C74       1.0  0.25216  0.54361  0.34317  1.0000
  H   H44       1.0  0.22699  0.53253  0.34382  1.0000
  N   N13       1.0  0.26423  0.89856  0.26458  1.0000
  C   C75       1.0  0.26619  0.87039  0.25985  1.0000
  H   H45       1.0  0.26233  0.85880  0.19875  1.0000
  N   N14       1.0  0.25459  0.61365  0.26701  1.0000
  C   C76       1.0  0.25258  0.64178  0.26119  1.0000
  H   H46       1.0  0.25680  0.65331  0.19990  1.0000
  C   C77       1.0  0.24960  0.81891  0.34153  1.0000
  C   C78       1.0  0.26659  0.80075  0.33988  1.0000
  C   C79       1.0  0.25193  0.71145  0.34050  1.0000
  C   C80       1.0  0.26893  0.69330  0.34153  1.0000
  H   H47       1.0  0.29175  0.81475  0.33756  1.0000
  H   H48       1.0  0.22676  0.69745  0.33895  1.0000
  C   C81       1.0  0.26576  0.91495  0.34223  1.0000
  C   C82       1.0  0.26619  0.85403  0.34028  1.0000
  N   N15       1.0  0.26469  0.86900  0.41781  1.0000
  C   C83       1.0  0.26656  0.89912  0.42327  1.0000
  O   O13       1.0  0.26037  0.90830  0.50539  1.0000
  C   C84       1.0  0.29022  0.93086  0.55265  1.0000
  H   H49       1.0  0.28318  0.93686  0.61708  1.0000
  C   C85       1.0  0.25279  0.59738  0.34520  1.0000
  C   C86       1.0  0.25233  0.65816  0.34134  1.0000
  N   N16       1.0  0.25360  0.64346  0.41956  1.0000
  C   C87       1.0  0.25181  0.61339  0.42560  1.0000
  O   O14       1.0  0.25767  0.60413  0.50802  1.0000
  C   C88       1.0  0.22762  0.58149  0.55442  1.0000
  H   H50       1.0  0.23440  0.57541  0.61916  1.0000
  C   C89       1.0  0.49128  0.24717  0.34115  1.0000
  C   C90       1.0  0.41950  0.21143  0.34223  1.0000
  C   C91       1.0  0.43672  0.19358  0.34203  1.0000
  C   C92       1.0  0.47188  0.21159  0.34246  1.0000
  O   O15       1.0  0.38560  0.19451  0.34271  1.0000
  H   H51       1.0  0.48295  0.19750  0.34395  1.0000
  C   C93       1.0  0.30400  0.21103  0.34355  1.0000
  C   C94       1.0  0.32183  0.24609  0.34242  1.0000
  C   C95       1.0  0.30382  0.26323  0.34217  1.0000
  O   O16       1.0  0.32091  0.19405  0.34468  1.0000
  H   H52       1.0  0.31791  0.28839  0.34289  1.0000
  C   C96       1.0  0.30436  0.09597  0.34572  1.0000
  O   O17       1.0  0.32134  0.12987  0.34723  1.0000
  N   N17       1.0  0.37160  0.26097  0.26482  1.0000
  C   C97       1.0  0.40172  0.26295  0.25918  1.0000
  H   H53       1.0  0.40925  0.25900  0.19789  1.0000
  N   N18       1.0  0.40176  0.14349  0.26557  1.0000
  C   C98       1.0  0.37360  0.11335  0.26091  1.0000
  H   H54       1.0  0.36204  0.10551  0.19981  1.0000
  C   C99       1.0  0.47200  0.26349  0.33965  1.0000
  C   C100      1.0  0.43685  0.24649  0.34031  1.0000
  H   H55       1.0  0.37911  0.19171  0.40668  1.0000
  H   H56       1.0  0.48317  0.28865  0.33789  1.0000
  H   H57       1.0  0.32372  0.19053  0.40876  1.0000
  C   C101      1.0  0.30393  0.04350  0.34030  1.0000
  C   C102      1.0  0.32208  0.07864  0.34281  1.0000
  H   H58       1.0  0.32475  0.13611  0.41139  1.0000
  H   H59       1.0  0.31792  0.03234  0.33763  1.0000
  H   H60       1.0  0.30472  0.45397  0.51508  1.0000
  H   H61       1.0  0.30556  0.41963  0.56635  1.0000
  C   C103      1.0  0.35695  0.26257  0.34285  1.0000
  C   C104      1.0  0.41834  0.26311  0.33918  1.0000
  N   N19       1.0  0.40218  0.26166  0.41726  1.0000
  C   C105      1.0  0.37389  0.26345  0.42336  1.0000
  O   O18       1.0  0.35878  0.25734  0.50583  1.0000
  C   C106      1.0  0.36603  0.28724  0.55282  1.0000
  H   H62       1.0  0.35320  0.28026  0.61756  1.0000
  H   H63       1.0  0.35716  0.30155  0.51538  1.0000
  H   H64       1.0  0.39263  0.30274  0.56587  1.0000
  C   C107      1.0  0.41806  0.15846  0.34323  1.0000
  C   C108      1.0  0.35721  0.09716  0.34144  1.0000
  N   N20       1.0  0.37204  0.11370  0.41902  1.0000
  C   C109      1.0  0.40216  0.14196  0.42434  1.0000
  O   O19       1.0  0.41129  0.15745  0.50632  1.0000
  C   C110      1.0  0.43380  0.15019  0.55399  1.0000
  H   H65       1.0  0.43978  0.16332  0.61829  1.0000
  H   H66       1.0  0.45694  0.15874  0.51658  1.0000
  H   H67       1.0  0.42255  0.12364  0.56797  1.0000
  C   C111      1.0  0.49128  0.74717  0.34115  1.0000
  C   C112      1.0  0.41951  0.71143  0.34223  1.0000
  C   C113      1.0  0.43672  0.69358  0.34203  1.0000
  C   C114      1.0  0.47188  0.71159  0.34246  1.0000
  O   O20       1.0  0.38560  0.69451  0.34271  1.0000
  H   H68       1.0  0.48295  0.69751  0.34395  1.0000
  C   C115      1.0  0.30400  0.71104  0.34355  1.0000
  C   C116      1.0  0.32183  0.74609  0.34242  1.0000
  C   C117      1.0  0.30382  0.76323  0.34217  1.0000
  O   O21       1.0  0.32092  0.69405  0.34468  1.0000
  H   H69       1.0  0.31791  0.78839  0.34289  1.0000
  C   C118      1.0  0.30436  0.59597  0.34572  1.0000
  O   O22       1.0  0.32134  0.62987  0.34723  1.0000
  N   N21       1.0  0.37160  0.76097  0.26482  1.0000
  C   C119      1.0  0.40172  0.76295  0.25918  1.0000
  H   H70       1.0  0.40925  0.75900  0.19789  1.0000
  N   N22       1.0  0.40176  0.64349  0.26557  1.0000
  C   C120      1.0  0.37360  0.61335  0.26091  1.0000
  H   H71       1.0  0.36204  0.60551  0.19981  1.0000
  C   C121      1.0  0.47201  0.76349  0.33965  1.0000
  C   C122      1.0  0.43685  0.74649  0.34031  1.0000
  H   H72       1.0  0.37911  0.69171  0.40668  1.0000
  H   H73       1.0  0.48317  0.78865  0.33789  1.0000
  H   H74       1.0  0.32372  0.69053  0.40876  1.0000
  C   C123      1.0  0.30393  0.54350  0.34030  1.0000
  C   C124      1.0  0.32208  0.57864  0.34281  1.0000
  H   H75       1.0  0.32475  0.63611  0.41139  1.0000
  H   H76       1.0  0.31792  0.53233  0.33763  1.0000
  H   H77       1.0  0.30472  0.95397  0.51508  1.0000
  H   H78       1.0  0.30556  0.91963  0.56635  1.0000
  C   C125      1.0  0.35695  0.76257  0.34285  1.0000
  C   C126      1.0  0.41834  0.76311  0.33918  1.0000
  N   N23       1.0  0.40218  0.76166  0.41726  1.0000
  C   C127      1.0  0.37389  0.76345  0.42336  1.0000
  O   O23       1.0  0.35878  0.75734  0.50583  1.0000
  C   C128      1.0  0.36603  0.78724  0.55282  1.0000
  H   H79       1.0  0.35320  0.78026  0.61756  1.0000
  H   H80       1.0  0.35717  0.80155  0.51538  1.0000
  H   H81       1.0  0.39263  0.80274  0.56587  1.0000
  C   C129      1.0  0.41806  0.65846  0.34323  1.0000
  C   C130      1.0  0.35721  0.59717  0.34144  1.0000
  N   N24       1.0  0.37204  0.61370  0.41902  1.0000
  C   C131      1.0  0.40216  0.64196  0.42434  1.0000
  O   O24       1.0  0.41129  0.65745  0.50632  1.0000
  C   C132      1.0  0.43380  0.65019  0.55399  1.0000
  H   H82       1.0  0.43978  0.66332  0.61829  1.0000
  H   H83       1.0  0.45694  0.65874  0.51658  1.0000
  H   H84       1.0  0.42255  0.62364  0.56797  1.0000
  C   C133      1.0  0.52736  0.26514  0.34148  1.0000
  C   C134      1.0  0.54675  0.30071  0.34258  1.0000
  C   C135      1.0  0.58190  0.31873  0.34335  1.0000
  C   C136      1.0  0.59912  0.30090  0.34513  1.0000
  H   H85       1.0  0.53568  0.31481  0.34305  1.0000
  O   O25       1.0  0.63302  0.31782  0.34688  1.0000
  C   C137      1.0  0.99128  0.24717  0.34115  1.0000
  C   C138      1.0  0.91950  0.21143  0.34223  1.0000
  C   C139      1.0  0.93672  0.19358  0.34203  1.0000
  C   C140      1.0  0.97188  0.21159  0.34246  1.0000
  O   O26       1.0  0.88560  0.19451  0.34271  1.0000
  H   H86       1.0  0.98295  0.19750  0.34395  1.0000
  C   C141      1.0  0.75028  0.26516  0.34140  1.0000
  C   C142      1.0  0.71470  0.24899  0.34298  1.0000
  C   C143      1.0  0.69669  0.26613  0.34323  1.0000
  C   C144      1.0  0.71454  0.30119  0.34414  1.0000
  H   H87       1.0  0.70061  0.22383  0.34415  1.0000
  O   O27       1.0  0.69762  0.31818  0.34531  1.0000
  C   C145      1.0  0.76824  0.24705  0.34133  1.0000
  C   C146      1.0  0.80400  0.21103  0.34355  1.0000
  C   C147      1.0  0.82183  0.24609  0.34242  1.0000
  C   C148      1.0  0.80382  0.26323  0.34217  1.0000
  O   O28       1.0  0.82091  0.19405  0.34468  1.0000
  H   H88       1.0  0.81791  0.28839  0.34289  1.0000
  C   C149      1.0  0.75022  0.48813  0.34107  1.0000
  C   C150      1.0  0.76641  0.46874  0.34194  1.0000
  C   C151      1.0  0.74928  0.43359  0.34135  1.0000
  C   C152      1.0  0.71422  0.41636  0.34178  1.0000
  H   H89       1.0  0.79157  0.47982  0.34329  1.0000
  O   O29       1.0  0.69725  0.38245  0.34255  1.0000
  C   C153      1.0  0.76834  0.02421  0.34156  1.0000
  C   C154      1.0  0.80436  0.09597  0.34572  1.0000
  C   C155      1.0  0.76930  0.07876  0.34416  1.0000
  C   C156      1.0  0.75216  0.04361  0.34317  1.0000
  O   O30       1.0  0.82134  0.12987  0.34723  1.0000
  H   H90       1.0  0.72699  0.03254  0.34382  1.0000
  N   N25       1.0  0.64692  0.25138  0.26673  1.0000
  C   C157      1.0  0.61677  0.24939  0.26173  1.0000
  H   H91       1.0  0.60928  0.25353  0.20060  1.0000
  N   N26       1.0  0.76423  0.39856  0.26457  1.0000
  C   C158      1.0  0.76618  0.37039  0.25985  1.0000
  H   H92       1.0  0.76233  0.35880  0.19875  1.0000
  N   N27       1.0  0.61687  0.36820  0.26586  1.0000
  C   C159      1.0  0.64501  0.39832  0.25996  1.0000
  H   H93       1.0  0.65657  0.40552  0.19868  1.0000
  N   N28       1.0  0.87160  0.26097  0.26482  1.0000
  C   C160      1.0  0.90172  0.26295  0.25918  1.0000
  H   H94       1.0  0.90925  0.25900  0.19789  1.0000
  N   N29       1.0  0.75459  0.11365  0.26701  1.0000
  C   C161      1.0  0.75258  0.14178  0.26119  1.0000
  H   H95       1.0  0.75680  0.15331  0.19990  1.0000
  N   N30       1.0  0.90176  0.14349  0.26557  1.0000
  C   C162      1.0  0.87360  0.11335  0.26091  1.0000
  H   H96       1.0  0.86204  0.10551  0.19981  1.0000
  C   C163      1.0  0.58179  0.26584  0.34252  1.0000
  C   C164      1.0  0.54664  0.24883  0.34063  1.0000
  C   C165      1.0  0.97200  0.26349  0.33965  1.0000
  C   C166      1.0  0.93685  0.24649  0.34031  1.0000
  H   H97       1.0  0.63919  0.32063  0.41109  1.0000
  H   H98       1.0  0.87911  0.19171  0.40668  1.0000
  H   H99       1.0  0.53548  0.22367  0.33859  1.0000
  H   H100      1.0  0.98317  0.28865  0.33789  1.0000
  C   C167      1.0  0.74960  0.31891  0.34153  1.0000
  C   C168      1.0  0.76659  0.30075  0.33988  1.0000
  C   C169      1.0  0.75193  0.21145  0.34050  1.0000
  C   C170      1.0  0.76893  0.19330  0.34153  1.0000
  H   H101      1.0  0.69481  0.32170  0.40941  1.0000
  H   H102      1.0  0.82372  0.19053  0.40876  1.0000
  H   H103      1.0  0.79175  0.31474  0.33756  1.0000
  H   H104      1.0  0.72676  0.19745  0.33895  1.0000
  C   C171      1.0  0.69649  0.43369  0.34007  1.0000
  C   C172      1.0  0.71463  0.46885  0.33992  1.0000
  C   C173      1.0  0.80393  0.04350  0.34030  1.0000
  C   C174      1.0  0.82208  0.07864  0.34281  1.0000
  H   H105      1.0  0.69360  0.37604  0.40657  1.0000
  H   H106      1.0  0.82475  0.13611  0.41139  1.0000
  H   H107      1.0  0.70063  0.48001  0.33871  1.0000
  H   H108      1.0  0.81792  0.03234  0.33763  1.0000
  C   C175      1.0  0.66156  0.24963  0.34460  1.0000
  C   C176      1.0  0.60035  0.24926  0.34225  1.0000
  N   N31       1.0  0.61660  0.25057  0.41999  1.0000
  C   C177      1.0  0.64484  0.24871  0.42547  1.0000
  O   O31       1.0  0.66019  0.25463  0.50758  1.0000
  C   C178      1.0  0.65273  0.22461  0.55421  1.0000
  H   H109      1.0  0.66576  0.23143  0.61868  1.0000
  H   H110      1.0  0.66125  0.21012  0.51621  1.0000
  H   H111      1.0  0.62614  0.20934  0.56780  1.0000
  C   C179      1.0  0.76576  0.41494  0.34223  1.0000
  C   C180      1.0  0.76619  0.35402  0.34028  1.0000
  N   N32       1.0  0.76469  0.36900  0.41781  1.0000
  C   C181      1.0  0.76656  0.39912  0.42327  1.0000
  O   O32       1.0  0.76036  0.40830  0.50539  1.0000
  C   C182      1.0  0.79022  0.43085  0.55265  1.0000
  H   H112      1.0  0.78318  0.43686  0.61708  1.0000
  H   H113      1.0  0.80472  0.45397  0.51508  1.0000
  H   H114      1.0  0.80556  0.41963  0.56635  1.0000
  C   C183      1.0  0.60051  0.35386  0.34404  1.0000
  C   C184      1.0  0.66136  0.41515  0.33999  1.0000
  N   N33       1.0  0.64652  0.39925  0.41818  1.0000
  C   C185      1.0  0.61644  0.37099  0.42435  1.0000
  O   O33       1.0  0.60713  0.35598  0.50691  1.0000
  C   C186      1.0  0.58445  0.36344  0.55289  1.0000
  H   H115      1.0  0.57834  0.35069  0.61777  1.0000
  H   H116      1.0  0.56140  0.35463  0.51486  1.0000
  H   H117      1.0  0.59562  0.39007  0.56562  1.0000
  C   C187      1.0  0.85695  0.26257  0.34285  1.0000
  C   C188      1.0  0.91834  0.26311  0.33918  1.0000
  N   N34       1.0  0.90218  0.26166  0.41726  1.0000
  C   C189      1.0  0.87389  0.26345  0.42336  1.0000
  O   O34       1.0  0.85878  0.25734  0.50583  1.0000
  C   C190      1.0  0.86603  0.28724  0.55282  1.0000
  H   H118      1.0  0.85320  0.28026  0.61756  1.0000
  H   H119      1.0  0.85716  0.30155  0.51538  1.0000
  H   H120      1.0  0.89263  0.30274  0.56587  1.0000
  C   C191      1.0  0.75279  0.09738  0.34520  1.0000
  C   C192      1.0  0.75233  0.15816  0.34134  1.0000
  N   N35       1.0  0.75360  0.14346  0.41956  1.0000
  C   C193      1.0  0.75181  0.11339  0.42560  1.0000
  O   O35       1.0  0.75767  0.10413  0.50802  1.0000
  C   C194      1.0  0.72762  0.08149  0.55442  1.0000
  H   H121      1.0  0.73440  0.07541  0.61916  1.0000
  H   H122      1.0  0.71330  0.05841  0.51655  1.0000
  H   H123      1.0  0.71220  0.09267  0.56745  1.0000
  C   C195      1.0  0.91806  0.15846  0.34323  1.0000
  C   C196      1.0  0.85721  0.09716  0.34144  1.0000
  N   N36       1.0  0.87204  0.11370  0.41902  1.0000
  C   C197      1.0  0.90216  0.14196  0.42434  1.0000
  O   O36       1.0  0.91129  0.15745  0.50632  1.0000
  C   C198      1.0  0.93380  0.15019  0.55399  1.0000
  H   H124      1.0  0.93978  0.16332  0.61829  1.0000
  H   H125      1.0  0.95694  0.15874  0.51658  1.0000
  H   H126      1.0  0.92255  0.12364  0.56797  1.0000
  C   C199      1.0  0.52736  0.76514  0.34148  1.0000
  C   C200      1.0  0.54675  0.80071  0.34258  1.0000
  C   C201      1.0  0.58190  0.81873  0.34335  1.0000
  C   C202      1.0  0.59912  0.80090  0.34513  1.0000
  H   H127      1.0  0.53568  0.81481  0.34305  1.0000
  O   O37       1.0  0.63302  0.81782  0.34688  1.0000
  C   C203      1.0  0.99128  0.74717  0.34115  1.0000
  C   C204      1.0  0.91950  0.71143  0.34223  1.0000
  C   C205      1.0  0.93673  0.69358  0.34203  1.0000
  C   C206      1.0  0.97188  0.71159  0.34246  1.0000
  O   O38       1.0  0.88560  0.69451  0.34271  1.0000
  H   H128      1.0  0.98295  0.69751  0.34395  1.0000
  C   C207      1.0  0.75028  0.76516  0.34140  1.0000
  C   C208      1.0  0.71470  0.74899  0.34298  1.0000
  C   C209      1.0  0.69669  0.76613  0.34323  1.0000
  C   C210      1.0  0.71454  0.80119  0.34414  1.0000
  H   H129      1.0  0.70061  0.72383  0.34415  1.0000
  O   O39       1.0  0.69762  0.81818  0.34531  1.0000
  C   C211      1.0  0.76824  0.74704  0.34133  1.0000
  C   C212      1.0  0.80400  0.71104  0.34355  1.0000
  C   C213      1.0  0.82183  0.74609  0.34242  1.0000
  C   C214      1.0  0.80382  0.76323  0.34217  1.0000
  O   O40       1.0  0.82091  0.69405  0.34468  1.0000
  H   H130      1.0  0.81791  0.78839  0.34289  1.0000
  C   C215      1.0  0.75022  0.98813  0.34107  1.0000
  C   C216      1.0  0.76641  0.96874  0.34194  1.0000
  C   C217      1.0  0.74928  0.93359  0.34135  1.0000
  C   C218      1.0  0.71422  0.91636  0.34178  1.0000
  H   H131      1.0  0.79157  0.97981  0.34329  1.0000
  O   O41       1.0  0.69725  0.88245  0.34255  1.0000
  C   C219      1.0  0.76834  0.52421  0.34156  1.0000
  C   C220      1.0  0.80436  0.59597  0.34572  1.0000
  C   C221      1.0  0.76930  0.57876  0.34416  1.0000
  C   C222      1.0  0.75216  0.54361  0.34317  1.0000
  O   O42       1.0  0.82134  0.62987  0.34723  1.0000
  H   H132      1.0  0.72699  0.53253  0.34382  1.0000
  N   N37       1.0  0.64692  0.75138  0.26673  1.0000
  C   C223      1.0  0.61677  0.74939  0.26173  1.0000
  H   H133      1.0  0.60928  0.75352  0.20060  1.0000
  N   N38       1.0  0.76423  0.89856  0.26458  1.0000
  C   C224      1.0  0.76619  0.87039  0.25985  1.0000
  H   H134      1.0  0.76233  0.85880  0.19875  1.0000
  N   N39       1.0  0.61687  0.86820  0.26586  1.0000
  C   C225      1.0  0.64501  0.89832  0.25996  1.0000
  H   H135      1.0  0.65657  0.90552  0.19868  1.0000
  N   N40       1.0  0.87160  0.76097  0.26482  1.0000
  C   C226      1.0  0.90172  0.76295  0.25918  1.0000
  H   H136      1.0  0.90925  0.75900  0.19789  1.0000
  N   N41       1.0  0.75459  0.61365  0.26701  1.0000
  C   C227      1.0  0.75258  0.64178  0.26119  1.0000
  H   H137      1.0  0.75680  0.65331  0.19990  1.0000
  N   N42       1.0  0.90176  0.64349  0.26557  1.0000
  C   C228      1.0  0.87360  0.61335  0.26091  1.0000
  H   H138      1.0  0.86204  0.60551  0.19981  1.0000
  C   C229      1.0  0.58180  0.76584  0.34252  1.0000
  C   C230      1.0  0.54665  0.74883  0.34063  1.0000
  C   C231      1.0  0.97201  0.76349  0.33965  1.0000
  C   C232      1.0  0.93685  0.74649  0.34031  1.0000
  H   H139      1.0  0.63919  0.82063  0.41109  1.0000
  H   H140      1.0  0.87911  0.69171  0.40668  1.0000
  H   H141      1.0  0.53548  0.72367  0.33859  1.0000
  H   H142      1.0  0.98317  0.78865  0.33789  1.0000
  C   C233      1.0  0.74960  0.81891  0.34153  1.0000
  C   C234      1.0  0.76659  0.80075  0.33988  1.0000
  C   C235      1.0  0.75193  0.71145  0.34050  1.0000
  C   C236      1.0  0.76893  0.69330  0.34153  1.0000
  H   H143      1.0  0.69482  0.82170  0.40941  1.0000
  H   H144      1.0  0.82372  0.69053  0.40876  1.0000
  H   H145      1.0  0.79175  0.81475  0.33756  1.0000
  H   H146      1.0  0.72676  0.69745  0.33895  1.0000
  C   C237      1.0  0.69649  0.93369  0.34007  1.0000
  C   C238      1.0  0.71463  0.96885  0.33992  1.0000
  C   C239      1.0  0.80393  0.54350  0.34030  1.0000
  C   C240      1.0  0.82208  0.57864  0.34281  1.0000
  H   H147      1.0  0.69360  0.87604  0.40657  1.0000
  H   H148      1.0  0.82475  0.63611  0.41139  1.0000
  H   H149      1.0  0.70063  0.98001  0.33871  1.0000
  H   H150      1.0  0.81792  0.53233  0.33763  1.0000
  C   C241      1.0  0.66155  0.74963  0.34460  1.0000
  C   C242      1.0  0.60035  0.74926  0.34225  1.0000
  N   N43       1.0  0.61660  0.75057  0.41999  1.0000
  C   C243      1.0  0.64484  0.74871  0.42547  1.0000
  O   O43       1.0  0.66019  0.75463  0.50758  1.0000
  C   C244      1.0  0.65273  0.72461  0.55421  1.0000
  H   H151      1.0  0.66576  0.73143  0.61868  1.0000
  H   H152      1.0  0.66125  0.71012  0.51621  1.0000
  H   H153      1.0  0.62615  0.70934  0.56780  1.0000
  C   C245      1.0  0.76576  0.91495  0.34223  1.0000
  C   C246      1.0  0.76619  0.85403  0.34028  1.0000
  N   N44       1.0  0.76469  0.86900  0.41781  1.0000
  C   C247      1.0  0.76656  0.89912  0.42327  1.0000
  O   O44       1.0  0.76037  0.90830  0.50539  1.0000
  C   C248      1.0  0.79022  0.93086  0.55265  1.0000
  H   H154      1.0  0.78318  0.93686  0.61708  1.0000
  H   H155      1.0  0.80472  0.95397  0.51508  1.0000
  H   H156      1.0  0.80556  0.91963  0.56635  1.0000
  C   C249      1.0  0.60051  0.85386  0.34404  1.0000
  C   C250      1.0  0.66136  0.91515  0.33999  1.0000
  N   N45       1.0  0.64651  0.89925  0.41818  1.0000
  C   C251      1.0  0.61644  0.87099  0.42435  1.0000
  O   O45       1.0  0.60713  0.85598  0.50691  1.0000
  C   C252      1.0  0.58445  0.86344  0.55289  1.0000
  H   H157      1.0  0.57834  0.85069  0.61777  1.0000
  H   H158      1.0  0.56140  0.85463  0.51486  1.0000
  H   H159      1.0  0.59562  0.89007  0.56562  1.0000
  C   C253      1.0  0.85695  0.76257  0.34285  1.0000
  C   C254      1.0  0.91834  0.76311  0.33918  1.0000
  N   N46       1.0  0.90217  0.76166  0.41726  1.0000
  C   C255      1.0  0.87389  0.76345  0.42336  1.0000
  O   O46       1.0  0.85878  0.75734  0.50583  1.0000
  C   C256      1.0  0.86603  0.78724  0.55282  1.0000
  H   H160      1.0  0.85320  0.78026  0.61756  1.0000
  H   H161      1.0  0.85716  0.80155  0.51538  1.0000
  H   H162      1.0  0.89263  0.80274  0.56587  1.0000
  C   C257      1.0  0.75279  0.59738  0.34520  1.0000
  C   C258      1.0  0.75233  0.65816  0.34134  1.0000
  N   N47       1.0  0.75360  0.64346  0.41956  1.0000
  C   C259      1.0  0.75181  0.61339  0.42560  1.0000
  O   O47       1.0  0.75767  0.60413  0.50802  1.0000
  C   C260      1.0  0.72762  0.58149  0.55442  1.0000
  H   H163      1.0  0.73440  0.57541  0.61916  1.0000
  H   H164      1.0  0.71330  0.55841  0.51655  1.0000
  H   H165      1.0  0.71220  0.59267  0.56745  1.0000
  C   C261      1.0  0.91806  0.65846  0.34323  1.0000
  C   C262      1.0  0.85721  0.59717  0.34144  1.0000
  N   N48       1.0  0.87204  0.61370  0.41902  1.0000
  C   C263      1.0  0.90216  0.64196  0.42434  1.0000
  O   O48       1.0  0.91129  0.65745  0.50632  1.0000
  C   C264      1.0  0.93380  0.65019  0.55399  1.0000
  H   H166      1.0  0.93978  0.66332  0.61829  1.0000
  H   H167      1.0  0.95694  0.65874  0.51658  1.0000
  H   H168      1.0  0.92255  0.62364  0.56797  1.0000
