data_image0
_chemical_formula_structural       C3HC4H2CH3C5H3CH3C5H3CH3C5H3CH3C3HC4H2CH3C3HC4H2CH3C3HC4H2CH3C3HC4H2CH3C5H3CH3C5H3CH3C3HC4H2CH3C3HC4H2CH3C5H3CH3C5H3CH3C3HC4H2CH3C3HC4H2CH3C5H3CH3C5H3CH3C3HC4H2CH3C3HC4H2CH3C5H3CH3C5H3CH3C5H3CH3C3HC4H2CH3C6H3C6H3C6H3C6H3C6H3C6H3C6H3C6H3C6H3C6H3C6H3C6H3C6H3C6H3C6H3C6H3C5H3CH3C3HC4H2CH3C3HC4H2CH3C3HC4H2CH3C5H3CH3C5H3CH3C5H3CH3C5H3CH3C3HC4H2CH3C3HC4H2CH3C5H3CH3C5H3CH3C3HC4H2CH3C3HC4H2CH3C5H3CH3C5H3CH3C3HC4H2CH3C3HC4H2CH3C5H3CH3C5H3CH3C3HC4H2CH3C3HC4H2CH3C3HC4H2CH3C5H3CH3
_chemical_formula_sum              "C432 H336"
_cell_length_a       82.6005
_cell_length_b       42.587
_cell_length_c       14.8824
_cell_angle_alpha    90
_cell_angle_beta     90
_cell_angle_gamma    90

_space_group_name_H-M_alt    "P 1"
_space_group_IT_number       1

loop_
  _space_group_symop_operation_xyz
  'x, y, z'

loop_
  _atom_site_type_symbol
  _atom_site_label
  _atom_site_symmetry_multiplicity
  _atom_site_fract_x
  _atom_site_fract_y
  _atom_site_fract_z
  _atom_site_occupancy
  C   C1        1.0  0.49957  0.48981  0.33556  1.0000
  C   C2        1.0  0.50518  0.46530  0.27983  1.0000
  C   C3        1.0  0.49748  0.43588  0.27940  1.0000
  H   H1        1.0  0.50191  0.41896  0.23719  1.0000
  C   C4        1.0  0.50772  0.51939  0.33118  1.0000
  C   C5        1.0  0.52427  0.57849  0.32999  1.0000
  C   C6        1.0  0.51250  0.57104  0.26416  1.0000
  C   C7        1.0  0.50420  0.54192  0.26327  1.0000
  H   H2        1.0  0.50982  0.58739  0.21593  1.0000
  H   H3        1.0  0.51494  0.46870  0.23854  1.0000
  C   C8        1.0  0.49181  0.53582  0.19269  1.0000
  H   H4        1.0  0.48010  0.53119  0.22394  1.0000
  H   H5        1.0  0.49534  0.51544  0.15282  1.0000
  H   H6        1.0  0.49029  0.55559  0.14676  1.0000
  C   C9        1.0  0.02393  0.92953  0.34736  1.0000
  C   C10       1.0  0.02965  0.95439  0.29266  1.0000
  C   C11       1.0  0.02212  0.98437  0.29155  1.0000
  C   C12       1.0  0.98816  0.02639  0.28665  1.0000
  C   C13       1.0  0.97998  0.05542  0.28737  1.0000
  H   H7        1.0  0.98545  0.01052  0.23719  1.0000
  H   H8        1.0  0.97180  0.06009  0.23745  1.0000
  H   H9        1.0  0.03924  0.95028  0.25072  1.0000
  C   C14       1.0  0.02873  0.00957  0.23277  1.0000
  H   H10       1.0  0.03940  0.00201  0.19525  1.0000
  H   H11       1.0  0.03219  0.02980  0.27348  1.0000
  H   H12       1.0  0.01956  0.01685  0.18428  1.0000
  C   C15       1.0  0.43609  0.35682  0.34552  1.0000
  C   C16       1.0  0.42523  0.37309  0.28843  1.0000
  C   C17       1.0  0.40843  0.36592  0.28522  1.0000
  C   C18       1.0  0.38047  0.30930  0.27905  1.0000
  C   C19       1.0  0.36435  0.29855  0.27734  1.0000
  H   H13       1.0  0.38858  0.29988  0.23449  1.0000
  H   H14       1.0  0.36120  0.28195  0.23080  1.0000
  H   H15       1.0  0.42976  0.38978  0.24579  1.0000
  C   C20       1.0  0.39770  0.38353  0.22269  1.0000
  H   H16       1.0  0.40419  0.40147  0.18463  1.0000
  H   H17       1.0  0.38811  0.39520  0.26050  1.0000
  H   H18       1.0  0.39221  0.36734  0.17467  1.0000
  C   C21       1.0  0.57187  0.65144  0.34476  1.0000
  C   C22       1.0  0.58294  0.63474  0.28993  1.0000
  C   C23       1.0  0.59973  0.64198  0.28772  1.0000
  C   C24       1.0  0.62755  0.69887  0.27985  1.0000
  C   C25       1.0  0.64367  0.70959  0.27822  1.0000
  H   H19       1.0  0.61951  0.70798  0.23438  1.0000
  H   H20       1.0  0.64690  0.72588  0.23094  1.0000
  H   H21       1.0  0.57857  0.61763  0.24812  1.0000
  C   C26       1.0  0.61067  0.62389  0.22745  1.0000
  H   H22       1.0  0.60433  0.60558  0.19014  1.0000
  H   H23       1.0  0.62017  0.61262  0.26693  1.0000
  H   H24       1.0  0.61627  0.63968  0.17877  1.0000
  C   C27       1.0  0.10573  0.84173  0.34099  1.0000
  C   C28       1.0  0.09502  0.82582  0.28271  1.0000
  C   C29       1.0  0.07844  0.83329  0.28063  1.0000
  H   H25       1.0  0.07119  0.82114  0.23703  1.0000
  C   C30       1.0  0.12239  0.83244  0.34133  1.0000
  C   C31       1.0  0.15529  0.81074  0.34546  1.0000
  C   C32       1.0  0.15018  0.83395  0.28346  1.0000
  C   C33       1.0  0.13394  0.84479  0.27971  1.0000
  H   H26       1.0  0.15841  0.84257  0.23833  1.0000
  H   H27       1.0  0.09920  0.80838  0.24137  1.0000
  C   C34       1.0  0.12927  0.86862  0.21129  1.0000
  H   H28       1.0  0.12443  0.88945  0.24444  1.0000
  H   H29       1.0  0.12001  0.85894  0.16691  1.0000
  H   H30       1.0  0.13946  0.87599  0.16960  1.0000
  C   C35       1.0  0.90212  0.16672  0.33976  1.0000
  C   C36       1.0  0.91303  0.18309  0.28372  1.0000
  C   C37       1.0  0.92960  0.17552  0.28261  1.0000
  H   H31       1.0  0.93701  0.18804  0.24071  1.0000
  C   C38       1.0  0.88548  0.17614  0.33948  1.0000
  C   C39       1.0  0.85257  0.19775  0.34349  1.0000
  C   C40       1.0  0.85776  0.17496  0.28042  1.0000
  C   C41       1.0  0.87401  0.16419  0.27670  1.0000
  H   H32       1.0  0.84958  0.16661  0.23459  1.0000
  H   H33       1.0  0.90900  0.20095  0.24339  1.0000
  C   C42       1.0  0.87880  0.14088  0.20708  1.0000
  H   H34       1.0  0.88358  0.11979  0.23916  1.0000
  H   H35       1.0  0.88813  0.15088  0.16378  1.0000
  H   H36       1.0  0.86867  0.13383  0.16443  1.0000
  C   C43       1.0  0.52301  0.23471  0.35386  1.0000
  C   C44       1.0  0.53611  0.23056  0.29388  1.0000
  C   C45       1.0  0.54516  0.20257  0.29391  1.0000
  H   H37       1.0  0.55386  0.19950  0.24576  1.0000
  C   C46       1.0  0.51304  0.26177  0.34459  1.0000
  C   C47       1.0  0.49192  0.31477  0.34252  1.0000
  C   C48       1.0  0.48967  0.28947  0.28217  1.0000
  C   C49       1.0  0.49999  0.26291  0.28214  1.0000
  H   H38       1.0  0.48033  0.29050  0.23698  1.0000
  H   H39       1.0  0.53870  0.24734  0.24673  1.0000
  C   C50       1.0  0.49679  0.23674  0.21817  1.0000
  H   H40       1.0  0.49462  0.21503  0.25518  1.0000
  H   H41       1.0  0.50724  0.23347  0.17428  1.0000
  H   H42       1.0  0.48626  0.24107  0.17558  1.0000
  C   C51       1.0  0.48486  0.77296  0.34341  1.0000
  C   C52       1.0  0.47157  0.77709  0.28468  1.0000
  C   C53       1.0  0.46253  0.80509  0.28544  1.0000
  H   H43       1.0  0.45366  0.80814  0.23819  1.0000
  C   C54       1.0  0.49475  0.74579  0.33393  1.0000
  C   C55       1.0  0.51592  0.69286  0.33321  1.0000
  C   C56       1.0  0.51821  0.71806  0.27259  1.0000
  C   C57       1.0  0.50785  0.74457  0.27182  1.0000
  H   H44       1.0  0.52763  0.71703  0.22793  1.0000
  H   H45       1.0  0.46885  0.76029  0.23780  1.0000
  C   C58       1.0  0.51104  0.77062  0.20748  1.0000
  H   H46       1.0  0.51323  0.79240  0.24415  1.0000
  H   H47       1.0  0.50059  0.77381  0.16360  1.0000
  H   H48       1.0  0.52157  0.76620  0.16491  1.0000
  C   C59       1.0  0.96657  0.67797  0.32837  1.0000
  C   C60       1.0  0.97922  0.68289  0.26570  1.0000
  C   C61       1.0  0.98855  0.71074  0.26493  1.0000
  C   C62       1.0  0.99244  0.78709  0.27810  1.0000
  C   C63       1.0  0.00282  0.81322  0.27936  1.0000
  H   H49       1.0  0.98327  0.78645  0.23178  1.0000
  H   H50       1.0  0.00092  0.83081  0.23365  1.0000
  H   H51       1.0  0.98210  0.66520  0.22187  1.0000
  C   C64       1.0  0.00232  0.71363  0.20082  1.0000
  H   H52       1.0  0.00365  0.69302  0.15778  1.0000
  H   H53       1.0  0.01363  0.71666  0.23774  1.0000
  H   H54       1.0  0.00047  0.73394  0.15735  1.0000
  C   C65       1.0  0.04138  0.32963  0.33730  1.0000
  C   C66       1.0  0.02853  0.32475  0.27587  1.0000
  C   C67       1.0  0.01919  0.29692  0.27592  1.0000
  C   C68       1.0  0.01563  0.22047  0.28872  1.0000
  C   C69       1.0  0.00524  0.19436  0.28936  1.0000
  H   H55       1.0  0.02481  0.22121  0.24245  1.0000
  H   H56       1.0  0.00713  0.17688  0.24333  1.0000
  H   H57       1.0  0.02551  0.34246  0.23237  1.0000
  C   C70       1.0  0.00524  0.29405  0.21298  1.0000
  H   H58       1.0  0.00379  0.31467  0.17009  1.0000
  H   H59       1.0  0.99403  0.29103  0.25086  1.0000
  H   H60       1.0  0.00696  0.27375  0.16935  1.0000
  C   C71       1.0  0.30823  0.15523  0.33962  1.0000
  C   C72       1.0  0.29846  0.17555  0.28756  1.0000
  C   C73       1.0  0.30092  0.20833  0.28834  1.0000
  H   H61       1.0  0.29390  0.22189  0.24708  1.0000
  C   C74       1.0  0.30610  0.12188  0.33140  1.0000
  C   C75       1.0  0.30396  0.05447  0.33069  1.0000
  C   C76       1.0  0.31256  0.07096  0.26313  1.0000
  C   C77       1.0  0.31376  0.10420  0.26211  1.0000
  H   H62       1.0  0.31839  0.05831  0.21437  1.0000
  H   H63       1.0  0.28965  0.16651  0.24665  1.0000
  C   C78       1.0  0.32342  0.11979  0.19037  1.0000
  H   H64       1.0  0.33334  0.13309  0.22030  1.0000
  H   H65       1.0  0.31571  0.13582  0.15239  1.0000
  H   H66       1.0  0.32866  0.10309  0.14289  1.0000
  C   C79       1.0  0.69979  0.85310  0.33996  1.0000
  C   C80       1.0  0.70953  0.83269  0.28802  1.0000
  C   C81       1.0  0.70705  0.79993  0.28913  1.0000
  H   H67       1.0  0.71404  0.78631  0.24791  1.0000
  C   C82       1.0  0.70191  0.88642  0.33126  1.0000
  C   C83       1.0  0.70401  0.95383  0.32962  1.0000
  C   C84       1.0  0.69544  0.93721  0.26226  1.0000
  C   C85       1.0  0.69425  0.90397  0.26170  1.0000
  H   H68       1.0  0.68960  0.94977  0.21328  1.0000
  H   H69       1.0  0.71832  0.84167  0.24683  1.0000
  C   C86       1.0  0.68460  0.88825  0.19016  1.0000
  H   H70       1.0  0.67468  0.87497  0.22028  1.0000
  H   H71       1.0  0.69231  0.87217  0.15240  1.0000
  H   H72       1.0  0.67935  0.90486  0.14246  1.0000
  C   C87       1.0  0.19463  0.72228  0.34150  1.0000
  C   C88       1.0  0.18512  0.70174  0.28818  1.0000
  C   C89       1.0  0.18731  0.66867  0.28816  1.0000
  C   C90       1.0  0.21077  0.60556  0.28471  1.0000
  C   C91       1.0  0.21188  0.57250  0.28528  1.0000
  H   H73       1.0  0.21617  0.61767  0.23338  1.0000
  H   H74       1.0  0.21786  0.56157  0.23379  1.0000
  H   H75       1.0  0.17631  0.71114  0.24799  1.0000
  C   C92       1.0  0.17642  0.64867  0.23262  1.0000
  H   H76       1.0  0.16743  0.66232  0.19561  1.0000
  H   H77       1.0  0.16992  0.63217  0.27559  1.0000
  H   H78       1.0  0.18354  0.63549  0.18375  1.0000
  C   C93       1.0  0.81318  0.28607  0.34043  1.0000
  C   C94       1.0  0.82266  0.30669  0.28721  1.0000
  C   C95       1.0  0.82046  0.33976  0.28757  1.0000
  C   C96       1.0  0.79703  0.40287  0.28516  1.0000
  C   C97       1.0  0.79592  0.43594  0.28620  1.0000
  H   H79       1.0  0.79165  0.39087  0.23352  1.0000
  H   H80       1.0  0.79000  0.44696  0.23470  1.0000
  H   H81       1.0  0.83147  0.29736  0.24685  1.0000
  C   C98       1.0  0.83132  0.35985  0.23213  1.0000
  H   H82       1.0  0.84030  0.34627  0.19487  1.0000
  H   H83       1.0  0.83783  0.37631  0.27521  1.0000
  H   H84       1.0  0.82418  0.37309  0.18348  1.0000
  C   C99       1.0  0.25603  0.40356  0.33066  1.0000
  C   C100      1.0  0.24263  0.39932  0.27296  1.0000
  C   C101      1.0  0.22972  0.42088  0.27204  1.0000
  H   H85       1.0  0.22032  0.41675  0.22885  1.0000
  C   C102      1.0  0.26877  0.38066  0.32868  1.0000
  C   C103      1.0  0.29378  0.33365  0.33122  1.0000
  C   C104      1.0  0.29401  0.35871  0.26854  1.0000
  C   C105      1.0  0.28173  0.38202  0.26568  1.0000
  H   H86       1.0  0.30328  0.35977  0.22297  1.0000
  H   H87       1.0  0.24212  0.38028  0.23102  1.0000
  C   C106      1.0  0.28267  0.40747  0.19731  1.0000
  H   H88       1.0  0.28310  0.43029  0.23054  1.0000
  H   H89       1.0  0.27202  0.40662  0.15394  1.0000
  H   H90       1.0  0.29336  0.40553  0.15454  1.0000
  C   C107      1.0  0.75191  0.60485  0.33281  1.0000
  C   C108      1.0  0.76535  0.60918  0.27550  1.0000
  C   C109      1.0  0.77827  0.58764  0.27463  1.0000
  H   H91       1.0  0.78770  0.59183  0.23169  1.0000
  C   C110      1.0  0.73916  0.62772  0.33079  1.0000
  C   C111      1.0  0.71413  0.67468  0.33337  1.0000
  C   C112      1.0  0.71393  0.64966  0.27061  1.0000
  C   C113      1.0  0.72622  0.62637  0.26773  1.0000
  H   H92       1.0  0.70466  0.64860  0.22500  1.0000
  H   H93       1.0  0.76590  0.62829  0.23381  1.0000
  C   C114      1.0  0.72532  0.60097  0.19919  1.0000
  H   H94       1.0  0.72488  0.57812  0.23227  1.0000
  H   H95       1.0  0.73598  0.60187  0.15594  1.0000
  H   H96       1.0  0.71464  0.60292  0.15632  1.0000
  C   C115      1.0  0.27837  0.94757  0.35357  1.0000
  C   C116      1.0  0.26476  0.95195  0.29697  1.0000
  C   C117      1.0  0.25157  0.93050  0.29503  1.0000
  C   C118      1.0  0.23952  0.85551  0.29168  1.0000
  C   C119      1.0  0.22729  0.83241  0.29071  1.0000
  H   H97       1.0  0.24873  0.85392  0.24585  1.0000
  H   H98       1.0  0.22789  0.81500  0.24339  1.0000
  H   H99       1.0  0.26470  0.97068  0.25388  1.0000
  C   C120      1.0  0.23773  0.93636  0.23328  1.0000
  H   H100      1.0  0.23913  0.95798  0.19465  1.0000
  H   H101      1.0  0.22653  0.93824  0.27180  1.0000
  H   H102      1.0  0.23661  0.91697  0.18575  1.0000
  C   C121      1.0  0.72948  0.06086  0.35135  1.0000
  C   C122      1.0  0.74314  0.05636  0.29519  1.0000
  C   C123      1.0  0.75633  0.07781  0.29325  1.0000
  C   C124      1.0  0.76836  0.15284  0.28950  1.0000
  C   C125      1.0  0.78059  0.17595  0.28856  1.0000
  H   H103      1.0  0.75916  0.15443  0.24360  1.0000
  H   H104      1.0  0.78002  0.19332  0.24114  1.0000
  H   H105      1.0  0.74323  0.03758  0.25228  1.0000
  C   C126      1.0  0.77022  0.07186  0.23187  1.0000
  H   H106      1.0  0.76884  0.05019  0.19346  1.0000
  H   H107      1.0  0.78139  0.07002  0.27065  1.0000
  H   H108      1.0  0.77138  0.09118  0.18415  1.0000
  C   C127      1.0  0.13818  0.43194  0.34397  1.0000
  C   C128      1.0  0.14142  0.45904  0.29232  1.0000
  C   C129      1.0  0.15698  0.47234  0.29058  1.0000
  H   H109      1.0  0.15884  0.49173  0.25129  1.0000
  C   C130      1.0  0.12197  0.42053  0.34668  1.0000
  C   C131      1.0  0.08878  0.40214  0.35641  1.0000
  C   C132      1.0  0.09876  0.39192  0.28492  1.0000
  C   C133      1.0  0.11525  0.40101  0.27852  1.0000
  H   H110      1.0  0.09372  0.37877  0.23455  1.0000
  H   H111      1.0  0.13240  0.46950  0.25570  1.0000
  C   C134      1.0  0.12511  0.39036  0.20063  1.0000
  H   H112      1.0  0.13563  0.37728  0.22447  1.0000
  H   H113      1.0  0.12926  0.41064  0.16217  1.0000
  H   H114      1.0  0.11835  0.37513  0.15510  1.0000
  C   C135      1.0  0.86979  0.57600  0.34580  1.0000
  C   C136      1.0  0.86647  0.54906  0.29363  1.0000
  C   C137      1.0  0.85089  0.53583  0.29209  1.0000
  H   H115      1.0  0.84897  0.51657  0.25236  1.0000
  C   C138      1.0  0.88601  0.58743  0.34774  1.0000
  C   C139      1.0  0.91923  0.60571  0.35522  1.0000
  C   C140      1.0  0.90909  0.61602  0.28455  1.0000
  C   C141      1.0  0.89258  0.60703  0.27932  1.0000
  H   H116      1.0  0.91401  0.62921  0.23390  1.0000
  H   H117      1.0  0.87543  0.53869  0.25640  1.0000
  C   C142      1.0  0.88253  0.61784  0.20230  1.0000
  H   H118      1.0  0.87208  0.63090  0.22711  1.0000
  H   H119      1.0  0.87828  0.59765  0.16383  1.0000
  H   H120      1.0  0.88919  0.63315  0.15651  1.0000
  C   C143      1.0  0.33806  0.95927  0.34153  1.0000
  C   C144      1.0  0.34142  0.93202  0.29017  1.0000
  C   C145      1.0  0.35701  0.91813  0.28767  1.0000
  C   C146      1.0  0.39580  0.93026  0.26347  1.0000
  C   C147      1.0  0.41211  0.92123  0.25874  1.0000
  H   H121      1.0  0.39125  0.94456  0.21419  1.0000
  H   H122      1.0  0.41894  0.92917  0.20599  1.0000
  H   H123      1.0  0.33239  0.92249  0.25177  1.0000
  C   C148      1.0  0.35977  0.88949  0.23243  1.0000
  H   H124      1.0  0.34876  0.88127  0.19927  1.0000
  H   H125      1.0  0.36421  0.87048  0.27503  1.0000
  H   H126      1.0  0.36873  0.89434  0.18042  1.0000
  C   C149      1.0  0.66981  0.04884  0.33932  1.0000
  C   C150      1.0  0.66637  0.07592  0.28738  1.0000
  C   C151      1.0  0.65075  0.08973  0.28499  1.0000
  C   C152      1.0  0.61188  0.07769  0.26309  1.0000
  C   C153      1.0  0.59555  0.08669  0.25948  1.0000
  H   H127      1.0  0.61631  0.06331  0.21367  1.0000
  H   H128      1.0  0.58860  0.07866  0.20733  1.0000
  H   H129      1.0  0.67535  0.08540  0.24855  1.0000
  C   C154      1.0  0.64790  0.11820  0.22916  1.0000
  H   H130      1.0  0.65886  0.12634  0.19540  1.0000
  H   H131      1.0  0.64350  0.13731  0.27146  1.0000
  H   H132      1.0  0.63888  0.11315  0.17761  1.0000
  C   C155      1.0  0.97498  0.56489  0.36698  1.0000
  C   C156      1.0  0.97283  0.53774  0.31351  1.0000
  C   C157      1.0  0.98400  0.51258  0.31543  1.0000
  C   C158      1.0  0.02225  0.49167  0.31393  1.0000
  C   C159      1.0  0.03391  0.46774  0.31208  1.0000
  H   H133      1.0  0.02286  0.50917  0.26684  1.0000
  H   H134      1.0  0.04259  0.46819  0.26298  1.0000
  H   H135      1.0  0.96320  0.53669  0.27027  1.0000
  C   C160      1.0  0.98128  0.48467  0.25710  1.0000
  H   H136      1.0  0.97015  0.48641  0.21781  1.0000
  H   H137      1.0  0.98045  0.46354  0.29835  1.0000
  H   H138      1.0  0.99134  0.48206  0.21017  1.0000
  C   C161      1.0  0.51023  0.01491  0.30941  1.0000
  C   C162      1.0  0.50808  0.04177  0.25523  1.0000
  C   C163      1.0  0.51931  0.06643  0.25824  1.0000
  H   H139      1.0  0.51743  0.08557  0.21794  1.0000
  C   C164      1.0  0.49834  0.99102  0.30490  1.0000
  C   C165      1.0  0.47481  0.94260  0.30887  1.0000
  C   C166      1.0  0.48731  0.94240  0.24398  1.0000
  C   C167      1.0  0.49913  0.96638  0.24056  1.0000
  H   H140      1.0  0.48786  0.92429  0.19876  1.0000
  H   H141      1.0  0.49827  0.04370  0.21343  1.0000
  C   C168      1.0  0.51214  0.96505  0.17140  1.0000
  H   H142      1.0  0.52397  0.96404  0.20392  1.0000
  H   H143      1.0  0.51160  0.98597  0.12917  1.0000
  H   H144      1.0  0.51107  0.94457  0.12764  1.0000
  C   C169      1.0  0.48117  0.34107  0.34241  1.0000
  C   C170      1.0  0.46420  0.33690  0.34304  1.0000
  C   C171      1.0  0.45328  0.36257  0.34355  1.0000
  C   C172      1.0  0.45998  0.39329  0.34060  1.0000
  C   C173      1.0  0.47697  0.39863  0.33863  1.0000
  C   C174      1.0  0.48725  0.37204  0.34114  1.0000
  H   H145      1.0  0.45233  0.41219  0.33976  1.0000
  H   H146      1.0  0.49954  0.37520  0.34121  1.0000
  H   H147      1.0  0.45971  0.31448  0.34348  1.0000
  C   C175      1.0  0.52676  0.66673  0.33464  1.0000
  C   C176      1.0  0.54371  0.67110  0.33792  1.0000
  C   C177      1.0  0.55471  0.64555  0.34134  1.0000
  C   C178      1.0  0.54811  0.61472  0.33926  1.0000
  C   C179      1.0  0.53118  0.60933  0.33400  1.0000
  C   C180      1.0  0.52077  0.63570  0.33297  1.0000
  H   H148      1.0  0.55575  0.59582  0.34108  1.0000
  H   H149      1.0  0.50849  0.63227  0.33017  1.0000
  H   H150      1.0  0.54813  0.69357  0.33811  1.0000
  C   C181      1.0  0.02673  0.84105  0.34004  1.0000
  C   C182      1.0  0.04370  0.83688  0.33943  1.0000
  C   C183      1.0  0.05462  0.86255  0.33892  1.0000
  C   C184      1.0  0.04791  0.89327  0.34189  1.0000
  C   C185      1.0  0.03093  0.89861  0.34384  1.0000
  C   C186      1.0  0.02064  0.87202  0.34132  1.0000
  H   H151      1.0  0.05556  0.91217  0.34274  1.0000
  H   H152      1.0  0.00835  0.87518  0.34123  1.0000
  H   H153      1.0  0.04819  0.81446  0.33897  1.0000
  C   C187      1.0  0.98114  0.16671  0.34786  1.0000
  C   C188      1.0  0.96418  0.17108  0.34457  1.0000
  C   C189      1.0  0.95319  0.14553  0.34114  1.0000
  C   C190      1.0  0.95978  0.11471  0.34326  1.0000
  C   C191      1.0  0.97671  0.10931  0.34852  1.0000
  C   C192      1.0  0.98713  0.13568  0.34955  1.0000
  H   H154      1.0  0.95214  0.09581  0.34144  1.0000
  H   H155      1.0  0.99940  0.13224  0.35235  1.0000
  H   H156      1.0  0.95977  0.19356  0.34434  1.0000
  C   C193      1.0  0.33617  0.29974  0.33577  1.0000
  C   C194      1.0  0.33253  0.26724  0.33670  1.0000
  C   C195      1.0  0.31640  0.25567  0.33849  1.0000
  C   C196      1.0  0.30370  0.27818  0.33722  1.0000
  C   C197      1.0  0.30670  0.31100  0.33430  1.0000
  C   C198      1.0  0.32305  0.32111  0.33453  1.0000
  H   H157      1.0  0.29196  0.27054  0.33817  1.0000
  H   H158      1.0  0.32549  0.34469  0.33352  1.0000
  H   H159      1.0  0.34194  0.25161  0.33667  1.0000
  C   C199      1.0  0.67177  0.70868  0.33768  1.0000
  C   C200      1.0  0.67543  0.74117  0.33823  1.0000
  C   C201      1.0  0.69156  0.75270  0.33992  1.0000
  C   C202      1.0  0.70425  0.73015  0.33888  1.0000
  C   C203      1.0  0.70122  0.69735  0.33635  1.0000
  C   C204      1.0  0.68487  0.68727  0.33673  1.0000
  H   H160      1.0  0.71600  0.73777  0.33974  1.0000
  H   H161      1.0  0.68242  0.66369  0.33601  1.0000
  H   H162      1.0  0.66602  0.75683  0.33796  1.0000
  C   C205      1.0  0.17173  0.79974  0.34674  1.0000
  C   C206      1.0  0.17537  0.76725  0.34578  1.0000
  C   C207      1.0  0.19149  0.75567  0.34398  1.0000
  C   C208      1.0  0.20419  0.77819  0.34527  1.0000
  C   C209      1.0  0.20120  0.81100  0.34820  1.0000
  C   C210      1.0  0.18485  0.82111  0.34799  1.0000
  H   H163      1.0  0.21594  0.77054  0.34429  1.0000
  H   H164      1.0  0.18241  0.84470  0.34900  1.0000
  H   H165      1.0  0.16596  0.75161  0.34581  1.0000
  C   C211      1.0  0.83613  0.20868  0.34479  1.0000
  C   C212      1.0  0.83247  0.24117  0.34424  1.0000
  C   C213      1.0  0.81634  0.25270  0.34254  1.0000
  C   C214      1.0  0.80365  0.23016  0.34359  1.0000
  C   C215      1.0  0.80667  0.19735  0.34613  1.0000
  C   C216      1.0  0.82302  0.18727  0.34576  1.0000
  H   H166      1.0  0.79190  0.23777  0.34273  1.0000
  H   H167      1.0  0.82548  0.16369  0.34649  1.0000
  H   H168      1.0  0.84188  0.25682  0.34451  1.0000
  C   C217      1.0  0.04401  0.41694  0.36653  1.0000
  C   C218      1.0  0.03799  0.38613  0.35786  1.0000
  C   C219      1.0  0.04840  0.36007  0.34670  1.0000
  C   C220      1.0  0.06534  0.36538  0.34721  1.0000
  C   C221      1.0  0.07179  0.39607  0.35680  1.0000
  C   C222      1.0  0.06091  0.42158  0.36500  1.0000
  H   H169      1.0  0.07305  0.34670  0.34023  1.0000
  H   H170      1.0  0.06533  0.44399  0.37032  1.0000
  H   H171      1.0  0.02570  0.38268  0.35864  1.0000
  C   C223      1.0  0.96407  0.59069  0.36029  1.0000
  C   C224      1.0  0.97004  0.62146  0.34889  1.0000
  C   C225      1.0  0.95960  0.64753  0.33886  1.0000
  C   C226      1.0  0.94267  0.64231  0.34223  1.0000
  C   C227      1.0  0.93624  0.61172  0.35408  1.0000
  C   C228      1.0  0.94715  0.58625  0.36223  1.0000
  H   H172      1.0  0.93496  0.66099  0.33570  1.0000
  H   H173      1.0  0.94269  0.56394  0.36968  1.0000
  H   H174      1.0  0.98232  0.62490  0.34709  1.0000
  C   C229      1.0  0.46390  0.91696  0.31591  1.0000
  C   C230      1.0  0.46992  0.88615  0.32454  1.0000
  C   C231      1.0  0.45950  0.86010  0.33571  1.0000
  C   C232      1.0  0.44257  0.86541  0.33523  1.0000
  C   C233      1.0  0.43612  0.89610  0.32569  1.0000
  C   C234      1.0  0.44700  0.92161  0.31748  1.0000
  H   H175      1.0  0.43486  0.84673  0.34222  1.0000
  H   H176      1.0  0.44258  0.94403  0.31219  1.0000
  H   H177      1.0  0.48220  0.88271  0.32380  1.0000
  C   C235      1.0  0.54383  0.09072  0.32225  1.0000
  C   C236      1.0  0.53787  0.12149  0.33359  1.0000
  C   C237      1.0  0.54830  0.14757  0.34361  1.0000
  C   C238      1.0  0.56523  0.14235  0.34023  1.0000
  C   C239      1.0  0.57167  0.11176  0.32844  1.0000
  C   C240      1.0  0.56076  0.08629  0.32032  1.0000
  H   H178      1.0  0.57295  0.16104  0.34672  1.0000
  H   H179      1.0  0.56522  0.06398  0.31289  1.0000
  H   H180      1.0  0.52559  0.12494  0.33540  1.0000
  C   C241      1.0  0.18565  0.47331  0.34045  1.0000
  C   C242      1.0  0.18760  0.50625  0.34632  1.0000
  C   C243      1.0  0.20300  0.52083  0.34589  1.0000
  C   C244      1.0  0.21686  0.50125  0.33847  1.0000
  C   C245      1.0  0.21560  0.46799  0.33312  1.0000
  C   C246      1.0  0.19983  0.45479  0.33460  1.0000
  H   H181      1.0  0.22807  0.51147  0.33749  1.0000
  H   H182      1.0  0.19860  0.43090  0.33137  1.0000
  H   H183      1.0  0.17748  0.52004  0.35150  1.0000
  C   C247      1.0  0.82227  0.53490  0.34261  1.0000
  C   C248      1.0  0.82028  0.50197  0.34806  1.0000
  C   C249      1.0  0.80486  0.48747  0.34743  1.0000
  C   C250      1.0  0.79103  0.50712  0.34019  1.0000
  C   C251      1.0  0.79233  0.54039  0.33527  1.0000
  C   C252      1.0  0.80811  0.55351  0.33701  1.0000
  H   H184      1.0  0.77980  0.49696  0.33900  1.0000
  H   H185      1.0  0.80938  0.57740  0.33411  1.0000
  H   H186      1.0  0.83038  0.48812  0.35302  1.0000
  C   C253      1.0  0.32225  0.97332  0.34206  1.0000
  C   C254      1.0  0.32031  0.00625  0.33617  1.0000
  C   C255      1.0  0.30490  0.02083  0.33659  1.0000
  C   C256      1.0  0.29105  0.00125  0.34399  1.0000
  C   C257      1.0  0.29230  0.96798  0.34938  1.0000
  C   C258      1.0  0.30807  0.95479  0.34790  1.0000
  H   H187      1.0  0.27983  0.01146  0.34494  1.0000
  H   H188      1.0  0.30931  0.93090  0.35115  1.0000
  H   H189      1.0  0.33042  0.02005  0.33099  1.0000
  C   C259      1.0  0.68563  0.03490  0.33988  1.0000
  C   C260      1.0  0.68762  0.00197  0.33443  1.0000
  C   C261      1.0  0.70304  0.98747  0.33507  1.0000
  C   C262      1.0  0.71687  0.00712  0.34230  1.0000
  C   C263      1.0  0.71557  0.04039  0.34722  1.0000
  C   C264      1.0  0.69979  0.05351  0.34547  1.0000
  H   H190      1.0  0.72810  0.99696  0.34349  1.0000
  H   H191      1.0  0.69852  0.07740  0.34837  1.0000
  H   H192      1.0  0.67751  0.98811  0.32948  1.0000
  C   C265      1.0  0.48396  0.42955  0.33512  1.0000
  C   C266      1.0  0.47826  0.45439  0.38990  1.0000
  C   C267      1.0  0.48578  0.48439  0.39099  1.0000
  C   C268      1.0  0.51973  0.52641  0.39590  1.0000
  C   C269      1.0  0.52790  0.55545  0.39522  1.0000
  H   H193      1.0  0.52246  0.51052  0.44528  1.0000
  H   H194      1.0  0.53611  0.56010  0.44503  1.0000
  H   H195      1.0  0.46866  0.45029  0.43179  1.0000
  C   C270      1.0  0.47917  0.50957  0.44979  1.0000
  H   H196      1.0  0.46850  0.50202  0.48731  1.0000
  H   H197      1.0  0.47571  0.52981  0.40909  1.0000
  H   H198      1.0  0.48834  0.51686  0.49826  1.0000
  C   C271      1.0  0.00833  0.98979  0.34698  1.0000
  C   C272      1.0  0.00272  0.96528  0.40268  1.0000
  C   C273      1.0  0.01042  0.93586  0.40309  1.0000
  H   H199      1.0  0.00598  0.91894  0.44527  1.0000
  C   C274      1.0  0.00018  0.01937  0.35137  1.0000
  C   C275      1.0  0.98361  0.07847  0.35258  1.0000
  C   C276      1.0  0.99539  0.07102  0.41839  1.0000
  C   C277      1.0  0.00369  0.04190  0.41929  1.0000
  H   H200      1.0  0.99807  0.08737  0.46662  1.0000
  H   H201      1.0  0.99295  0.96867  0.44397  1.0000
  C   C278      1.0  0.01608  0.03580  0.48986  1.0000
  H   H202      1.0  0.02780  0.03118  0.45861  1.0000
  H   H203      1.0  0.01256  0.01541  0.52973  1.0000
  H   H204      1.0  0.01760  0.05557  0.53581  1.0000
  C   C279      1.0  0.40217  0.34174  0.34148  1.0000
  C   C280      1.0  0.41288  0.32583  0.39977  1.0000
  C   C281      1.0  0.42946  0.33330  0.40185  1.0000
  H   H205      1.0  0.43671  0.32114  0.44542  1.0000
  C   C282      1.0  0.38551  0.33245  0.34115  1.0000
  C   C283      1.0  0.35261  0.31073  0.33705  1.0000
  C   C284      1.0  0.35772  0.33394  0.39907  1.0000
  C   C285      1.0  0.37396  0.34479  0.40280  1.0000
  H   H206      1.0  0.34948  0.34257  0.44418  1.0000
  H   H207      1.0  0.40870  0.30839  0.44110  1.0000
  C   C286      1.0  0.37863  0.36862  0.47121  1.0000
  H   H208      1.0  0.38346  0.38946  0.43806  1.0000
  H   H209      1.0  0.38790  0.35895  0.51557  1.0000
  H   H210      1.0  0.36844  0.37598  0.51293  1.0000
  C   C287      1.0  0.60578  0.66672  0.34271  1.0000
  C   C288      1.0  0.59487  0.68309  0.39875  1.0000
  C   C289      1.0  0.57830  0.67553  0.39985  1.0000
  H   H211      1.0  0.57089  0.68805  0.44176  1.0000
  C   C290      1.0  0.62242  0.67613  0.34298  1.0000
  C   C291      1.0  0.65533  0.69775  0.33900  1.0000
  C   C292      1.0  0.65013  0.67498  0.40210  1.0000
  C   C293      1.0  0.63389  0.66420  0.40579  1.0000
  H   H212      1.0  0.65832  0.66662  0.44790  1.0000
  H   H213      1.0  0.59890  0.70096  0.43905  1.0000
  C   C294      1.0  0.62910  0.64088  0.47540  1.0000
  H   H214      1.0  0.62433  0.61979  0.44331  1.0000
  H   H215      1.0  0.61976  0.65088  0.51868  1.0000
  H   H216      1.0  0.63922  0.63384  0.51807  1.0000
  C   C295      1.0  0.07180  0.85681  0.33696  1.0000
  C   C296      1.0  0.08266  0.87305  0.39411  1.0000
  C   C297      1.0  0.09946  0.86591  0.39729  1.0000
  C   C298      1.0  0.12743  0.80929  0.40344  1.0000
  C   C299      1.0  0.14355  0.79856  0.40519  1.0000
  H   H217      1.0  0.11932  0.79987  0.44800  1.0000
  H   H218      1.0  0.14670  0.78194  0.45169  1.0000
  H   H219      1.0  0.07814  0.88977  0.43669  1.0000
  C   C300      1.0  0.11020  0.88351  0.45981  1.0000
  H   H220      1.0  0.10371  0.90145  0.49789  1.0000
  H   H221      1.0  0.11978  0.89519  0.42199  1.0000
  H   H222      1.0  0.11569  0.86733  0.50781  1.0000
  C   C301      1.0  0.93602  0.15143  0.33771  1.0000
  C   C302      1.0  0.92495  0.13473  0.39254  1.0000
  C   C303      1.0  0.90816  0.14198  0.39475  1.0000
  C   C304      1.0  0.88035  0.19887  0.40261  1.0000
  C   C305      1.0  0.86423  0.20959  0.40424  1.0000
  H   H223      1.0  0.88839  0.20799  0.44807  1.0000
  H   H224      1.0  0.86100  0.22589  0.45151  1.0000
  H   H225      1.0  0.92932  0.11764  0.43438  1.0000
  C   C306      1.0  0.89722  0.12391  0.45505  1.0000
  H   H226      1.0  0.90357  0.10559  0.49237  1.0000
  H   H227      1.0  0.88772  0.11264  0.41558  1.0000
  H   H228      1.0  0.89163  0.13970  0.50372  1.0000
  C   C307      1.0  0.54134  0.17802  0.35401  1.0000
  C   C308      1.0  0.52870  0.18294  0.41673  1.0000
  C   C309      1.0  0.51936  0.21078  0.41743  1.0000
  C   C310      1.0  0.51547  0.28712  0.40423  1.0000
  C   C311      1.0  0.50509  0.31325  0.40300  1.0000
  H   H229      1.0  0.52462  0.28646  0.45061  1.0000
  H   H230      1.0  0.50697  0.33081  0.44881  1.0000
  H   H231      1.0  0.52580  0.16524  0.46049  1.0000
  C   C312      1.0  0.50558  0.21366  0.48149  1.0000
  H   H232      1.0  0.50425  0.19306  0.52456  1.0000
  H   H233      1.0  0.49427  0.21668  0.44453  1.0000
  H   H234      1.0  0.50742  0.23398  0.52493  1.0000
  C   C313      1.0  0.46653  0.82966  0.34513  1.0000
  C   C314      1.0  0.47937  0.82477  0.40657  1.0000
  C   C315      1.0  0.48871  0.79693  0.40650  1.0000
  C   C316      1.0  0.49227  0.72050  0.39375  1.0000
  C   C317      1.0  0.50267  0.69440  0.39313  1.0000
  H   H235      1.0  0.48309  0.72123  0.43997  1.0000
  H   H236      1.0  0.50076  0.67692  0.43916  1.0000
  H   H237      1.0  0.48239  0.84247  0.45009  1.0000
  C   C318      1.0  0.50267  0.79406  0.46942  1.0000
  H   H238      1.0  0.50412  0.81467  0.51231  1.0000
  H   H239      1.0  0.51387  0.79103  0.43154  1.0000
  H   H240      1.0  0.50094  0.77376  0.51306  1.0000
  C   C319      1.0  0.98489  0.73468  0.32845  1.0000
  C   C320      1.0  0.97179  0.73053  0.38844  1.0000
  C   C321      1.0  0.96276  0.70252  0.38851  1.0000
  H   H241      1.0  0.95405  0.69947  0.43664  1.0000
  C   C322      1.0  0.99487  0.76173  0.33772  1.0000
  C   C323      1.0  0.01598  0.81475  0.33989  1.0000
  C   C324      1.0  0.01823  0.78944  0.40021  1.0000
  C   C325      1.0  0.00792  0.76288  0.40020  1.0000
  H   H242      1.0  0.02756  0.79046  0.44542  1.0000
  H   H243      1.0  0.96921  0.74730  0.43565  1.0000
  C   C326      1.0  0.01110  0.73670  0.46417  1.0000
  H   H244      1.0  0.01329  0.71499  0.42714  1.0000
  H   H245      1.0  0.00066  0.73343  0.50804  1.0000
  H   H246      1.0  0.02163  0.74103  0.50677  1.0000
  C   C327      1.0  0.02303  0.27294  0.33900  1.0000
  C   C328      1.0  0.03631  0.27707  0.39780  1.0000
  C   C329      1.0  0.04538  0.30505  0.39693  1.0000
  H   H247      1.0  0.05423  0.30810  0.44429  1.0000
  C   C330      1.0  0.01314  0.24578  0.34846  1.0000
  C   C331      1.0  0.99198  0.19284  0.34926  1.0000
  C   C332      1.0  0.98969  0.21804  0.40987  1.0000
  C   C333      1.0  0.00005  0.24455  0.41061  1.0000
  H   H248      1.0  0.98027  0.21701  0.45454  1.0000
  H   H249      1.0  0.03904  0.26026  0.44461  1.0000
  C   C334      1.0  0.99685  0.27061  0.47493  1.0000
  H   H250      1.0  0.99466  0.29238  0.43824  1.0000
  H   H251      1.0  0.00731  0.27382  0.51880  1.0000
  H   H252      1.0  0.98633  0.26619  0.51750  1.0000
  C   C335      1.0  0.31326  0.22228  0.34093  1.0000
  C   C336      1.0  0.32278  0.20173  0.39423  1.0000
  C   C337      1.0  0.32059  0.16866  0.39422  1.0000
  C   C338      1.0  0.29712  0.10556  0.39763  1.0000
  C   C339      1.0  0.29600  0.07250  0.39707  1.0000
  H   H253      1.0  0.29175  0.11767  0.44906  1.0000
  H   H254      1.0  0.29006  0.06158  0.44870  1.0000
  H   H255      1.0  0.33159  0.21112  0.43442  1.0000
  C   C340      1.0  0.33148  0.14865  0.44973  1.0000
  H   H256      1.0  0.34047  0.16229  0.48676  1.0000
  H   H257      1.0  0.33798  0.13215  0.40674  1.0000
  H   H258      1.0  0.32436  0.13546  0.49859  1.0000
  C   C341      1.0  0.69472  0.78607  0.34203  1.0000
  C   C342      1.0  0.68524  0.80670  0.39523  1.0000
  C   C343      1.0  0.68744  0.83976  0.39485  1.0000
  C   C344      1.0  0.71087  0.90287  0.39731  1.0000
  C   C345      1.0  0.71197  0.93593  0.39630  1.0000
  H   H259      1.0  0.71625  0.89086  0.44888  1.0000
  H   H260      1.0  0.71791  0.94695  0.44777  1.0000
  H   H261      1.0  0.67643  0.79737  0.43560  1.0000
  C   C346      1.0  0.67658  0.85986  0.45026  1.0000
  H   H262      1.0  0.66759  0.84628  0.48751  1.0000
  H   H263      1.0  0.67007  0.87631  0.40716  1.0000
  H   H264      1.0  0.68372  0.87310  0.49892  1.0000
  C   C347      1.0  0.19967  0.65523  0.34273  1.0000
  C   C348      1.0  0.20943  0.67555  0.39483  1.0000
  C   C349      1.0  0.20697  0.70832  0.39412  1.0000
  H   H265      1.0  0.21399  0.72187  0.43538  1.0000
  C   C350      1.0  0.20179  0.62189  0.35093  1.0000
  C   C351      1.0  0.20393  0.55448  0.35171  1.0000
  C   C352      1.0  0.19534  0.57097  0.41927  1.0000
  C   C353      1.0  0.19413  0.60421  0.42024  1.0000
  H   H266      1.0  0.18951  0.55832  0.46804  1.0000
  H   H267      1.0  0.21824  0.66650  0.43576  1.0000
  C   C354      1.0  0.18447  0.61980  0.49198  1.0000
  H   H268      1.0  0.17455  0.63310  0.46202  1.0000
  H   H269      1.0  0.19217  0.63583  0.52994  1.0000
  H   H270      1.0  0.17923  0.60311  0.53946  1.0000
  C   C355      1.0  0.80811  0.35310  0.34244  1.0000
  C   C356      1.0  0.79838  0.33270  0.39443  1.0000
  C   C357      1.0  0.80084  0.29994  0.39328  1.0000
  H   H271      1.0  0.79386  0.28632  0.43457  1.0000
  C   C358      1.0  0.80600  0.38643  0.35114  1.0000
  C   C359      1.0  0.80388  0.45383  0.35288  1.0000
  C   C360      1.0  0.81246  0.43720  0.42023  1.0000
  C   C361      1.0  0.81365  0.40396  0.42074  1.0000
  H   H272      1.0  0.81830  0.44976  0.46917  1.0000
  H   H273      1.0  0.78959  0.34168  0.43559  1.0000
  C   C362      1.0  0.82332  0.38824  0.49223  1.0000
  H   H274      1.0  0.83323  0.37498  0.46208  1.0000
  H   H275      1.0  0.81561  0.37215  0.52999  1.0000
  H   H276      1.0  0.82856  0.40484  0.53995  1.0000
  C   C363      1.0  0.22953  0.44758  0.32887  1.0000
  C   C364      1.0  0.24315  0.45197  0.38544  1.0000
  C   C365      1.0  0.25633  0.43051  0.38743  1.0000
  C   C366      1.0  0.26838  0.35551  0.39076  1.0000
  C   C367      1.0  0.28060  0.33239  0.39171  1.0000
  H   H277      1.0  0.25917  0.35393  0.43661  1.0000
  H   H278      1.0  0.28001  0.31501  0.43909  1.0000
  H   H279      1.0  0.24320  0.47068  0.42861  1.0000
  C   C368      1.0  0.27017  0.43635  0.44921  1.0000
  H   H280      1.0  0.26877  0.45798  0.48783  1.0000
  H   H281      1.0  0.28138  0.43823  0.41071  1.0000
  H   H282      1.0  0.27129  0.41697  0.49674  1.0000
  C   C369      1.0  0.77842  0.56085  0.33113  1.0000
  C   C370      1.0  0.76476  0.55637  0.38733  1.0000
  C   C371      1.0  0.75157  0.57781  0.38925  1.0000
  C   C372      1.0  0.73953  0.65284  0.39299  1.0000
  C   C373      1.0  0.72731  0.67594  0.39394  1.0000
  H   H283      1.0  0.74874  0.65443  0.43887  1.0000
  H   H284      1.0  0.72788  0.69332  0.44133  1.0000
  H   H285      1.0  0.76467  0.53758  0.43021  1.0000
  C   C374      1.0  0.73768  0.57187  0.45063  1.0000
  H   H286      1.0  0.73907  0.55019  0.48906  1.0000
  H   H287      1.0  0.72651  0.57002  0.41185  1.0000
  H   H288      1.0  0.73652  0.59119  0.49834  1.0000
  C   C375      1.0  0.25187  0.90355  0.35180  1.0000
  C   C376      1.0  0.26527  0.89932  0.40950  1.0000
  C   C377      1.0  0.27818  0.92087  0.41042  1.0000
  H   H289      1.0  0.28758  0.91674  0.45364  1.0000
  C   C378      1.0  0.23913  0.88066  0.35379  1.0000
  C   C379      1.0  0.21412  0.83365  0.35127  1.0000
  C   C380      1.0  0.21390  0.85871  0.41394  1.0000
  C   C381      1.0  0.22617  0.88202  0.41679  1.0000
  H   H290      1.0  0.20463  0.85977  0.45954  1.0000
  H   H291      1.0  0.26579  0.88027  0.45145  1.0000
  C   C382      1.0  0.22524  0.90747  0.48517  1.0000
  H   H292      1.0  0.22481  0.93029  0.45195  1.0000
  H   H293      1.0  0.23589  0.90661  0.52854  1.0000
  H   H294      1.0  0.21455  0.90553  0.52795  1.0000
  C   C383      1.0  0.75599  0.10485  0.34968  1.0000
  C   C384      1.0  0.74254  0.10918  0.40699  1.0000
  C   C385      1.0  0.72963  0.08764  0.40786  1.0000
  H   H295      1.0  0.72020  0.09184  0.45079  1.0000
  C   C386      1.0  0.76873  0.12773  0.35170  1.0000
  C   C387      1.0  0.79376  0.17469  0.34912  1.0000
  C   C388      1.0  0.79397  0.14966  0.41187  1.0000
  C   C389      1.0  0.78168  0.12637  0.41476  1.0000
  H   H296      1.0  0.80324  0.14860  0.45750  1.0000
  H   H297      1.0  0.74200  0.12829  0.44869  1.0000
  C   C390      1.0  0.78258  0.10097  0.48331  1.0000
  H   H298      1.0  0.78302  0.07812  0.45024  1.0000
  H   H299      1.0  0.77192  0.10188  0.52656  1.0000
  H   H300      1.0  0.79326  0.10293  0.52618  1.0000
  C   C391      1.0  0.16985  0.45927  0.34099  1.0000
  C   C392      1.0  0.16649  0.43200  0.39229  1.0000
  C   C393      1.0  0.15090  0.41811  0.39485  1.0000
  C   C394      1.0  0.11211  0.43020  0.41912  1.0000
  C   C395      1.0  0.09579  0.42117  0.42381  1.0000
  H   H301      1.0  0.11665  0.44451  0.46838  1.0000
  H   H302      1.0  0.08896  0.42912  0.47654  1.0000
  H   H303      1.0  0.17552  0.42247  0.43074  1.0000
  C   C396      1.0  0.14815  0.38946  0.45009  1.0000
  H   H304      1.0  0.15916  0.38125  0.48321  1.0000
  H   H305      1.0  0.14370  0.37047  0.40750  1.0000
  H   H306      1.0  0.13919  0.39432  0.50214  1.0000
  C   C397      1.0  0.83809  0.54884  0.34316  1.0000
  C   C398      1.0  0.84153  0.57593  0.39508  1.0000
  C   C399      1.0  0.85715  0.58973  0.39748  1.0000
  C   C400      1.0  0.89602  0.57766  0.41937  1.0000
  C   C401      1.0  0.91236  0.58665  0.42300  1.0000
  H   H307      1.0  0.89158  0.56330  0.46884  1.0000
  H   H308      1.0  0.91930  0.57864  0.47518  1.0000
  H   H309      1.0  0.83254  0.58539  0.43394  1.0000
  C   C402      1.0  0.86000  0.61819  0.45333  1.0000
  H   H310      1.0  0.84904  0.62634  0.48709  1.0000
  H   H311      1.0  0.86441  0.63731  0.41104  1.0000
  H   H312      1.0  0.86902  0.61314  0.50489  1.0000
  C   C403      1.0  0.36973  0.93195  0.33861  1.0000
  C   C404      1.0  0.36649  0.95905  0.39025  1.0000
  C   C405      1.0  0.35092  0.97235  0.39196  1.0000
  H   H313      1.0  0.34906  0.99174  0.43125  1.0000
  C   C406      1.0  0.38594  0.92056  0.33589  1.0000
  C   C407      1.0  0.41912  0.90219  0.32610  1.0000
  C   C408      1.0  0.40915  0.89192  0.39754  1.0000
  C   C409      1.0  0.39266  0.90101  0.40397  1.0000
  H   H314      1.0  0.41419  0.87877  0.44790  1.0000
  H   H315      1.0  0.37550  0.96951  0.42687  1.0000
  C   C410      1.0  0.38280  0.89034  0.48185  1.0000
  H   H316      1.0  0.37228  0.87727  0.45798  1.0000
  H   H317      1.0  0.37865  0.91060  0.52036  1.0000
  H   H318      1.0  0.38956  0.87509  0.52733  1.0000
  C   C411      1.0  0.63811  0.07601  0.33669  1.0000
  C   C412      1.0  0.64143  0.04906  0.38883  1.0000
  C   C413      1.0  0.65701  0.03583  0.39038  1.0000
  H   H319      1.0  0.65893  0.01658  0.43012  1.0000
  C   C414      1.0  0.62189  0.08744  0.33476  1.0000
  C   C415      1.0  0.58868  0.10576  0.32724  1.0000
  C   C416      1.0  0.59883  0.11608  0.39787  1.0000
  C   C417      1.0  0.61533  0.10705  0.40315  1.0000
  H   H320      1.0  0.59390  0.12923  0.44860  1.0000
  H   H321      1.0  0.63247  0.03869  0.42609  1.0000
  C   C418      1.0  0.62537  0.11784  0.48020  1.0000
  H   H322      1.0  0.63583  0.13088  0.45543  1.0000
  H   H323      1.0  0.62961  0.09764  0.51868  1.0000
  H   H324      1.0  0.61871  0.13316  0.52597  1.0000
  C   C419      1.0  0.99768  0.51488  0.37312  1.0000
  C   C420      1.0  0.99983  0.54175  0.42728  1.0000
  C   C421      1.0  0.98859  0.56640  0.42429  1.0000
  H   H325      1.0  0.99048  0.58554  0.46459  1.0000
  C   C422      1.0  0.00958  0.49100  0.37763  1.0000
  C   C423      1.0  0.03311  0.44257  0.37362  1.0000
  C   C424      1.0  0.02060  0.44237  0.43852  1.0000
  C   C425      1.0  0.00878  0.46636  0.44196  1.0000
  H   H326      1.0  0.02005  0.42426  0.48370  1.0000
  H   H327      1.0  0.00964  0.54368  0.46908  1.0000
  C   C426      1.0  0.99577  0.46502  0.51110  1.0000
  H   H328      1.0  0.98394  0.46401  0.47858  1.0000
  H   H329      1.0  0.99631  0.48593  0.55334  1.0000
  H   H330      1.0  0.99684  0.44454  0.55486  1.0000
  C   C427      1.0  0.53293  0.06492  0.31558  1.0000
  C   C428      1.0  0.53507  0.03778  0.36907  1.0000
  C   C429      1.0  0.52391  0.01261  0.36712  1.0000
  C   C430      1.0  0.48567  0.99167  0.36862  1.0000
  C   C431      1.0  0.47400  0.96775  0.37044  1.0000
  H   H331      1.0  0.48505  0.00920  0.41567  1.0000
  H   H332      1.0  0.46531  0.96821  0.41949  1.0000
  H   H333      1.0  0.54471  0.03673  0.41228  1.0000
  C   C432      1.0  0.52663  0.98469  0.42543  1.0000
  H   H334      1.0  0.53776  0.98644  0.46473  1.0000
  H   H335      1.0  0.52747  0.96357  0.38417  1.0000
  H   H336      1.0  0.51657  0.98207  0.47235  1.0000
