data_image0
_chemical_formula_structural       C8H3NH2C8H3NH2C2H2C2H2C2H2C2H2C2H2C2H2C2H2C2H2C8H3NH2C8H3NH2C8H3NH2C8H3NH2C2H2C2H2C2H2C2H2C2H2C2H2C2H2C2H2C8H3NH2C8H3NH2C8H3NH2C8H3NH2C6H3C6H3C6H3C6H3C6H3C6H3C6H3C6H3C6H3C6H3C6H3C6H3C2H2C2H2C2H2C2H2C8H3NH2C8H3NH2C8H3NH2C8H3NH2C2H2C2H2C2H2C2H2C2H2C2H2C2H2C2H2C8H3NH2C8H3NH2C8H3NH2C8H3NH2C2H2C2H2C2H2C2H2C2H2C2H2C2H2C2H2
_chemical_formula_sum              "C288 H198 N18"
_cell_length_a       51.8148
_cell_length_b       51.6567
_cell_length_c       14.8752
_cell_angle_alpha    90
_cell_angle_beta     90
_cell_angle_gamma    90.1782

_space_group_name_H-M_alt    "P 1"
_space_group_IT_number       1

loop_
  _space_group_symop_operation_xyz
  'x, y, z'

loop_
  _atom_site_type_symbol
  _atom_site_label
  _atom_site_symmetry_multiplicity
  _atom_site_fract_x
  _atom_site_fract_y
  _atom_site_fract_z
  _atom_site_occupancy
  C   C1        1.0  0.05171  0.45426  0.33780  1.0000
  C   C2        1.0  0.05196  0.47413  0.27224  1.0000
  C   C3        1.0  0.03284  0.49375  0.26908  1.0000
  C   C4        1.0  0.01284  0.49365  0.33487  1.0000
  C   C5        1.0  0.99298  0.51270  0.33718  1.0000
  C   C6        1.0  0.97155  0.51109  0.27870  1.0000
  C   C7        1.0  0.95214  0.53017  0.28020  1.0000
  C   C8        1.0  0.95355  0.55163  0.33946  1.0000
  H   H1        1.0  0.96999  0.49605  0.23421  1.0000
  H   H2        1.0  0.93717  0.52852  0.23571  1.0000
  H   H3        1.0  0.06623  0.47409  0.22459  1.0000
  N   N1        1.0  0.03448  0.51210  0.20364  1.0000
  H   H4        1.0  0.04835  0.51194  0.15953  1.0000
  H   H5        1.0  0.02209  0.52613  0.19914  1.0000
  C   C9        1.0  0.55180  0.05115  0.33709  1.0000
  C   C10       1.0  0.53200  0.05144  0.27150  1.0000
  C   C11       1.0  0.51227  0.03232  0.26843  1.0000
  C   C12       1.0  0.51219  0.01228  0.33432  1.0000
  C   C13       1.0  0.49299  0.99245  0.33675  1.0000
  C   C14       1.0  0.49436  0.97096  0.27828  1.0000
  C   C15       1.0  0.47512  0.95159  0.27978  1.0000
  C   C16       1.0  0.45373  0.95313  0.33901  1.0000
  H   H6        1.0  0.50934  0.96931  0.23382  1.0000
  H   H7        1.0  0.47660  0.93656  0.23532  1.0000
  H   H8        1.0  0.53215  0.06575  0.22388  1.0000
  N   N2        1.0  0.49397  0.03400  0.20301  1.0000
  H   H9        1.0  0.49427  0.04789  0.15881  1.0000
  H   H10       1.0  0.47988  0.02162  0.19854  1.0000
  C   C17       1.0  0.05420  0.32372  0.28462  1.0000
  C   C18       1.0  0.05977  0.35040  0.28330  1.0000
  H   H11       1.0  0.04230  0.31630  0.23599  1.0000
  H   H12       1.0  0.05213  0.36153  0.23303  1.0000
  C   C19       1.0  0.06596  0.23713  0.28640  1.0000
  C   C20       1.0  0.07124  0.26392  0.28701  1.0000
  H   H13       1.0  0.07536  0.22580  0.24055  1.0000
  H   H14       1.0  0.08460  0.27119  0.24296  1.0000
  C   C21       1.0  0.95069  0.68213  0.28184  1.0000
  C   C22       1.0  0.94502  0.65546  0.28070  1.0000
  H   H15       1.0  0.96254  0.68950  0.23300  1.0000
  H   H16       1.0  0.95258  0.64429  0.23041  1.0000
  C   C23       1.0  0.93941  0.76881  0.28429  1.0000
  C   C24       1.0  0.93402  0.74205  0.28473  1.0000
  H   H17       1.0  0.93000  0.78022  0.23869  1.0000
  H   H18       1.0  0.92058  0.73486  0.24082  1.0000
  C   C25       1.0  0.68193  0.05429  0.28363  1.0000
  C   C26       1.0  0.65536  0.05985  0.28225  1.0000
  H   H19       1.0  0.68931  0.04247  0.23475  1.0000
  H   H20       1.0  0.64426  0.05225  0.23176  1.0000
  C   C27       1.0  0.76829  0.06589  0.28590  1.0000
  C   C28       1.0  0.74163  0.07119  0.28649  1.0000
  H   H21       1.0  0.77965  0.07531  0.24003  1.0000
  H   H22       1.0  0.73446  0.08456  0.24234  1.0000
  C   C29       1.0  0.32376  0.95109  0.28260  1.0000
  C   C30       1.0  0.35028  0.94527  0.28162  1.0000
  H   H23       1.0  0.31664  0.96338  0.23468  1.0000
  H   H24       1.0  0.36159  0.95317  0.23227  1.0000
  C   C31       1.0  0.23710  0.93970  0.28331  1.0000
  C   C32       1.0  0.26372  0.93420  0.28375  1.0000
  H   H25       1.0  0.22564  0.93034  0.23758  1.0000
  H   H26       1.0  0.27077  0.92074  0.23969  1.0000
  C   C33       1.0  0.42806  0.86040  0.33587  1.0000
  C   C34       1.0  0.41761  0.84375  0.26958  1.0000
  C   C35       1.0  0.42336  0.81692  0.26664  1.0000
  C   C36       1.0  0.44004  0.80636  0.33335  1.0000
  C   C37       1.0  0.44638  0.77956  0.33655  1.0000
  C   C38       1.0  0.46462  0.76893  0.27652  1.0000
  C   C39       1.0  0.47027  0.74226  0.27812  1.0000
  C   C40       1.0  0.45771  0.72528  0.33898  1.0000
  H   H27       1.0  0.47379  0.78053  0.23066  1.0000
  H   H28       1.0  0.48321  0.73522  0.23238  1.0000
  H   H29       1.0  0.40560  0.85139  0.22183  1.0000
  N   N3        1.0  0.41237  0.80223  0.20090  1.0000
  H   H30       1.0  0.40092  0.80980  0.15629  1.0000
  H   H31       1.0  0.41531  0.78371  0.19666  1.0000
  C   C41       1.0  0.57712  0.14376  0.33408  1.0000
  C   C42       1.0  0.58666  0.16006  0.26519  1.0000
  C   C43       1.0  0.58088  0.18688  0.26180  1.0000
  C   C44       1.0  0.56521  0.19779  0.33083  1.0000
  C   C45       1.0  0.55896  0.22463  0.33387  1.0000
  C   C46       1.0  0.54063  0.23528  0.27424  1.0000
  C   C47       1.0  0.53501  0.26197  0.27596  1.0000
  C   C48       1.0  0.54763  0.27893  0.33671  1.0000
  H   H32       1.0  0.53137  0.22370  0.22858  1.0000
  H   H33       1.0  0.52197  0.26901  0.23054  1.0000
  H   H34       1.0  0.59802  0.15216  0.21602  1.0000
  N   N4        1.0  0.59096  0.20124  0.19348  1.0000
  H   H35       1.0  0.60175  0.19344  0.14735  1.0000
  H   H36       1.0  0.58809  0.21976  0.18890  1.0000
  C   C49       1.0  0.86106  0.57680  0.33535  1.0000
  C   C50       1.0  0.84473  0.58677  0.26753  1.0000
  C   C51       1.0  0.81793  0.58109  0.26449  1.0000
  C   C52       1.0  0.80706  0.56502  0.33269  1.0000
  C   C53       1.0  0.78026  0.55882  0.33589  1.0000
  C   C54       1.0  0.76945  0.54054  0.27602  1.0000
  C   C55       1.0  0.74278  0.53505  0.27753  1.0000
  C   C56       1.0  0.72598  0.54779  0.33823  1.0000
  H   H37       1.0  0.78090  0.53124  0.23030  1.0000
  H   H38       1.0  0.73563  0.52206  0.23192  1.0000
  H   H39       1.0  0.85258  0.59841  0.21889  1.0000
  N   N5        1.0  0.80355  0.59165  0.19729  1.0000
  H   H40       1.0  0.81132  0.60274  0.15180  1.0000
  H   H41       1.0  0.78504  0.58886  0.19306  1.0000
  C   C57       1.0  0.14399  0.42885  0.33336  1.0000
  C   C58       1.0  0.16013  0.41895  0.26488  1.0000
  C   C59       1.0  0.18697  0.42439  0.26166  1.0000
  C   C60       1.0  0.19808  0.44009  0.33042  1.0000
  C   C61       1.0  0.22496  0.44598  0.33361  1.0000
  C   C62       1.0  0.23595  0.46422  0.27400  1.0000
  C   C63       1.0  0.26266  0.46950  0.27577  1.0000
  C   C64       1.0  0.27932  0.45660  0.33650  1.0000
  H   H42       1.0  0.22459  0.47368  0.22835  1.0000
  H   H43       1.0  0.26994  0.48249  0.23038  1.0000
  H   H44       1.0  0.15210  0.40751  0.21600  1.0000
  N   N6        1.0  0.20116  0.41392  0.19380  1.0000
  H   H45       1.0  0.19322  0.40309  0.14790  1.0000
  H   H46       1.0  0.21969  0.41655  0.18940  1.0000
  C   C65       1.0  0.09679  0.09553  0.27463  1.0000
  C   C66       1.0  0.07900  0.11596  0.27114  1.0000
  H   H47       1.0  0.09584  0.08155  0.22588  1.0000
  H   H48       1.0  0.06588  0.11637  0.21969  1.0000
  C   C67       1.0  0.15984  0.03911  0.28820  1.0000
  C   C68       1.0  0.14753  0.06342  0.28689  1.0000
  H   H49       1.0  0.17239  0.03461  0.23747  1.0000
  H   H50       1.0  0.15176  0.07611  0.23613  1.0000
  C   C69       1.0  0.90874  0.91034  0.27432  1.0000
  C   C70       1.0  0.92648  0.88988  0.27045  1.0000
  H   H51       1.0  0.90958  0.92428  0.22539  1.0000
  H   H52       1.0  0.93945  0.88938  0.21856  1.0000
  C   C71       1.0  0.84579  0.96684  0.28956  1.0000
  C   C72       1.0  0.85806  0.94252  0.28807  1.0000
  H   H53       1.0  0.83302  0.97127  0.23942  1.0000
  H   H54       1.0  0.85367  0.92978  0.23763  1.0000
  C   C73       1.0  0.90951  0.09700  0.27378  1.0000
  C   C74       1.0  0.88885  0.07938  0.27005  1.0000
  H   H55       1.0  0.92325  0.09619  0.22434  1.0000
  H   H56       1.0  0.88804  0.06649  0.21782  1.0000
  C   C75       1.0  0.96691  0.15952  0.28973  1.0000
  C   C76       1.0  0.94249  0.14741  0.28840  1.0000
  H   H57       1.0  0.97138  0.17248  0.24004  1.0000
  H   H58       1.0  0.92972  0.15213  0.23856  1.0000
  C   C77       1.0  0.09575  0.90923  0.27262  1.0000
  C   C78       1.0  0.11640  0.92688  0.26894  1.0000
  H   H59       1.0  0.08190  0.91018  0.22360  1.0000
  H   H60       1.0  0.11707  0.93992  0.21714  1.0000
  C   C79       1.0  0.03857  0.84646  0.28777  1.0000
  C   C80       1.0  0.06296  0.85864  0.28630  1.0000
  H   H61       1.0  0.03404  0.83363  0.23773  1.0000
  H   H62       1.0  0.07565  0.85410  0.23604  1.0000
  C   C81       1.0  0.42739  0.63396  0.34561  1.0000
  C   C82       1.0  0.40946  0.63194  0.27438  1.0000
  C   C83       1.0  0.39169  0.61104  0.26853  1.0000
  C   C84       1.0  0.39166  0.59182  0.33743  1.0000
  C   C85       1.0  0.37719  0.56838  0.33146  1.0000
  C   C86       1.0  0.38343  0.54993  0.26486  1.0000
  C   C87       1.0  0.37143  0.52547  0.26402  1.0000
  C   C88       1.0  0.35278  0.51870  0.32955  1.0000
  H   H63       1.0  0.39749  0.55379  0.21834  1.0000
  H   H64       1.0  0.37693  0.51234  0.21621  1.0000
  H   H65       1.0  0.41020  0.64526  0.22343  1.0000
  N   N7        1.0  0.37534  0.61005  0.19698  1.0000
  H   H66       1.0  0.37550  0.62344  0.15089  1.0000
  H   H67       1.0  0.36222  0.59669  0.19144  1.0000
  C   C89       1.0  0.57789  0.37028  0.34399  1.0000
  C   C90       1.0  0.59594  0.37225  0.27310  1.0000
  C   C91       1.0  0.61374  0.39313  0.26749  1.0000
  C   C92       1.0  0.61370  0.41236  0.33635  1.0000
  C   C93       1.0  0.62825  0.43577  0.33064  1.0000
  C   C94       1.0  0.62217  0.45422  0.26383  1.0000
  C   C95       1.0  0.63418  0.47868  0.26333  1.0000
  C   C96       1.0  0.65270  0.48544  0.32932  1.0000
  H   H68       1.0  0.60819  0.45038  0.21702  1.0000
  H   H69       1.0  0.62879  0.49180  0.21536  1.0000
  H   H70       1.0  0.59524  0.35892  0.22215  1.0000
  N   N8        1.0  0.63019  0.39408  0.19622  1.0000
  H   H71       1.0  0.63008  0.38068  0.15017  1.0000
  H   H72       1.0  0.64334  0.40742  0.19087  1.0000
  C   C97       1.0  0.63513  0.57837  0.34523  1.0000
  C   C98       1.0  0.63293  0.59611  0.27337  1.0000
  C   C99       1.0  0.61208  0.61380  0.26753  1.0000
  C   C100      1.0  0.59309  0.61391  0.33700  1.0000
  C   C101      1.0  0.56970  0.62828  0.33120  1.0000
  C   C102      1.0  0.55124  0.62185  0.26484  1.0000
  C   C103      1.0  0.52681  0.63365  0.26433  1.0000
  C   C104      1.0  0.52006  0.65231  0.32989  1.0000
  H   H73       1.0  0.55505  0.60774  0.21842  1.0000
  H   H74       1.0  0.51370  0.62799  0.21670  1.0000
  H   H75       1.0  0.64607  0.59526  0.22199  1.0000
  N   N9        1.0  0.61092  0.62996  0.19538  1.0000
  H   H76       1.0  0.62423  0.62982  0.14915  1.0000
  H   H77       1.0  0.59768  0.64313  0.19007  1.0000
  C   C105      1.0  0.37009  0.42570  0.34473  1.0000
  C   C106      1.0  0.37226  0.40795  0.27287  1.0000
  C   C107      1.0  0.39310  0.39025  0.26698  1.0000
  C   C108      1.0  0.41210  0.39010  0.33641  1.0000
  C   C109      1.0  0.43553  0.37580  0.33044  1.0000
  C   C110      1.0  0.45394  0.38229  0.26398  1.0000
  C   C111      1.0  0.47839  0.37053  0.26325  1.0000
  C   C112      1.0  0.48520  0.35185  0.32866  1.0000
  H   H78       1.0  0.45008  0.39642  0.21766  1.0000
  H   H79       1.0  0.49147  0.37624  0.21558  1.0000
  H   H80       1.0  0.35913  0.40882  0.22148  1.0000
  N   N10       1.0  0.39424  0.37410  0.19482  1.0000
  H   H81       1.0  0.38096  0.37429  0.14849  1.0000
  H   H82       1.0  0.40751  0.36095  0.18935  1.0000
  C   C113      1.0  0.08340  0.38833  0.34371  1.0000
  C   C114      1.0  0.10968  0.39578  0.34051  1.0000
  C   C115      1.0  0.11725  0.42209  0.33694  1.0000
  C   C116      1.0  0.09776  0.44124  0.33690  1.0000
  C   C117      1.0  0.07119  0.43461  0.33924  1.0000
  C   C118      1.0  0.06444  0.40801  0.34250  1.0000
  H   H83       1.0  0.10306  0.46035  0.33473  1.0000
  H   H84       1.0  0.04534  0.40283  0.34410  1.0000
  H   H85       1.0  0.12362  0.38175  0.34072  1.0000
  C   C119      1.0  0.92155  0.61756  0.34230  1.0000
  C   C120      1.0  0.89529  0.61001  0.34037  1.0000
  C   C121      1.0  0.88779  0.58367  0.33833  1.0000
  C   C122      1.0  0.90736  0.56460  0.33903  1.0000
  C   C123      1.0  0.93395  0.57125  0.33997  1.0000
  C   C124      1.0  0.94056  0.59793  0.34118  1.0000
  H   H86       1.0  0.90208  0.54548  0.33843  1.0000
  H   H87       1.0  0.95962  0.60323  0.34158  1.0000
  H   H88       1.0  0.88131  0.62400  0.34043  1.0000
  C   C125      1.0  0.61759  0.08324  0.34327  1.0000
  C   C126      1.0  0.61017  0.10957  0.34051  1.0000
  C   C127      1.0  0.58394  0.11701  0.33725  1.0000
  C   C128      1.0  0.56485  0.09736  0.33695  1.0000
  C   C129      1.0  0.57144  0.07075  0.33878  1.0000
  C   C130      1.0  0.59795  0.06411  0.34188  1.0000
  H   H89       1.0  0.54579  0.10256  0.33494  1.0000
  H   H90       1.0  0.60309  0.04498  0.34318  1.0000
  H   H91       1.0  0.62416  0.12364  0.34084  1.0000
  C   C131      1.0  0.38773  0.92113  0.34209  1.0000
  C   C132      1.0  0.39510  0.89478  0.34035  1.0000
  C   C133      1.0  0.42132  0.88722  0.33847  1.0000
  C   C134      1.0  0.44045  0.90685  0.33895  1.0000
  C   C135      1.0  0.43400  0.93352  0.33969  1.0000
  C   C136      1.0  0.40746  0.94017  0.34093  1.0000
  H   H92       1.0  0.45948  0.90155  0.33834  1.0000
  H   H93       1.0  0.40233  0.95930  0.34129  1.0000
  H   H94       1.0  0.38106  0.88077  0.34048  1.0000
  C   C137      1.0  0.05810  0.15352  0.34176  1.0000
  C   C138      1.0  0.03225  0.14486  0.34551  1.0000
  C   C139      1.0  0.01138  0.16235  0.34993  1.0000
  C   C140      1.0  0.01686  0.18920  0.34887  1.0000
  C   C141      1.0  0.04256  0.19874  0.34604  1.0000
  C   C142      1.0  0.06296  0.18047  0.34332  1.0000
  H   H95       1.0  0.00181  0.20199  0.35077  1.0000
  H   H96       1.0  0.08170  0.18683  0.34232  1.0000
  H   H97       1.0  0.02855  0.12535  0.34537  1.0000
  C   C143      1.0  0.94747  0.85233  0.34077  1.0000
  C   C144      1.0  0.97333  0.86096  0.34449  1.0000
  C   C145      1.0  0.99418  0.84345  0.34851  1.0000
  C   C146      1.0  0.98867  0.81660  0.34705  1.0000
  C   C147      1.0  0.96295  0.80709  0.34422  1.0000
  C   C148      1.0  0.94258  0.82539  0.34196  1.0000
  H   H98       1.0  0.00371  0.80379  0.34865  1.0000
  H   H99       1.0  0.92383  0.81907  0.34102  1.0000
  H   H100      1.0  0.97705  0.88047  0.34459  1.0000
  C   C149      1.0  0.85158  0.05820  0.34164  1.0000
  C   C150      1.0  0.86013  0.03231  0.34567  1.0000
  C   C151      1.0  0.84262  0.01134  0.35026  1.0000
  C   C152      1.0  0.81587  0.01675  0.34899  1.0000
  C   C153      1.0  0.80645  0.04251  0.34585  1.0000
  C   C154      1.0  0.82473  0.06302  0.34307  1.0000
  H   H101      1.0  0.80307  0.00161  0.35094  1.0000
  H   H102      1.0  0.81848  0.08180  0.34194  1.0000
  H   H103      1.0  0.87957  0.02866  0.34559  1.0000
  C   C155      1.0  0.15391  0.94780  0.34000  1.0000
  C   C156      1.0  0.14547  0.97373  0.34438  1.0000
  C   C157      1.0  0.16307  0.99463  0.34888  1.0000
  C   C158      1.0  0.18980  0.98911  0.34713  1.0000
  C   C159      1.0  0.19912  0.96331  0.34365  1.0000
  C   C160      1.0  0.18074  0.94288  0.34098  1.0000
  H   H104      1.0  0.20266  0.00419  0.34900  1.0000
  H   H105      1.0  0.18691  0.92407  0.33960  1.0000
  H   H106      1.0  0.12605  0.97746  0.34467  1.0000
  C   C161      1.0  0.44762  0.65269  0.34330  1.0000
  C   C162      1.0  0.47348  0.64424  0.33935  1.0000
  C   C163      1.0  0.49431  0.66191  0.33485  1.0000
  C   C164      1.0  0.48877  0.68872  0.33614  1.0000
  C   C165      1.0  0.46304  0.69803  0.33926  1.0000
  C   C166      1.0  0.44269  0.67959  0.34193  1.0000
  H   H107      1.0  0.50379  0.70164  0.33419  1.0000
  H   H108      1.0  0.42394  0.68578  0.34301  1.0000
  H   H109      1.0  0.47721  0.62476  0.33936  1.0000
  C   C167      1.0  0.55767  0.35154  0.34155  1.0000
  C   C168      1.0  0.53179  0.35996  0.33784  1.0000
  C   C169      1.0  0.51097  0.34228  0.33338  1.0000
  C   C170      1.0  0.51654  0.31548  0.33441  1.0000
  C   C171      1.0  0.54228  0.30617  0.33723  1.0000
  C   C172      1.0  0.56261  0.32464  0.33993  1.0000
  H   H110      1.0  0.50153  0.30255  0.33247  1.0000
  H   H111      1.0  0.58137  0.31846  0.34086  1.0000
  H   H112      1.0  0.52804  0.37944  0.33802  1.0000
  C   C173      1.0  0.65368  0.55808  0.34278  1.0000
  C   C174      1.0  0.64504  0.53216  0.33881  1.0000
  C   C175      1.0  0.66249  0.51124  0.33429  1.0000
  C   C176      1.0  0.68925  0.51674  0.33557  1.0000
  C   C177      1.0  0.69876  0.54253  0.33860  1.0000
  C   C178      1.0  0.68054  0.56298  0.34135  1.0000
  H   H113      1.0  0.70200  0.50164  0.33361  1.0000
  H   H114      1.0  0.68686  0.58178  0.34240  1.0000
  H   H115      1.0  0.62559  0.52845  0.33884  1.0000
  C   C179      1.0  0.35159  0.44604  0.34226  1.0000
  C   C180      1.0  0.36030  0.47194  0.33868  1.0000
  C   C181      1.0  0.34293  0.49291  0.33412  1.0000
  C   C182      1.0  0.31615  0.48750  0.33485  1.0000
  C   C183      1.0  0.30656  0.46174  0.33740  1.0000
  C   C184      1.0  0.32471  0.44123  0.34028  1.0000
  H   H116      1.0  0.30345  0.50264  0.33285  1.0000
  H   H117      1.0  0.31833  0.42244  0.34104  1.0000
  H   H118      1.0  0.37977  0.47560  0.33905  1.0000
  C   C185      1.0  0.01258  0.47393  0.40081  1.0000
  C   C186      1.0  0.03154  0.45449  0.40179  1.0000
  H   H119      1.0  0.99840  0.47347  0.44876  1.0000
  H   H120      1.0  0.03076  0.44068  0.45107  1.0000
  C   C187      1.0  0.97515  0.55303  0.39782  1.0000
  C   C188      1.0  0.99447  0.53386  0.39708  1.0000
  H   H121      1.0  0.97685  0.56795  0.44270  1.0000
  H   H122      1.0  0.00977  0.53559  0.44018  1.0000
  C   C189      1.0  0.53186  0.01196  0.40020  1.0000
  C   C190      1.0  0.55142  0.03093  0.40108  1.0000
  H   H123      1.0  0.53218  0.99776  0.44822  1.0000
  H   H124      1.0  0.56517  0.03015  0.45043  1.0000
  C   C191      1.0  0.45256  0.97480  0.39730  1.0000
  C   C192      1.0  0.47190  0.99408  0.39659  1.0000
  H   H125      1.0  0.43771  0.97659  0.44217  1.0000
  H   H126      1.0  0.47033  0.00945  0.43963  1.0000
  C   C193      1.0  0.07649  0.36153  0.34768  1.0000
  C   C194      1.0  0.08700  0.34512  0.41435  1.0000
  C   C195      1.0  0.08137  0.31824  0.41787  1.0000
  C   C196      1.0  0.06476  0.30738  0.35134  1.0000
  C   C197      1.0  0.05866  0.28048  0.34841  1.0000
  C   C198      1.0  0.04050  0.26964  0.40847  1.0000
  C   C199      1.0  0.03507  0.24288  0.40709  1.0000
  C   C200      1.0  0.04779  0.22603  0.34641  1.0000
  H   H127      1.0  0.03121  0.28113  0.45414  1.0000
  H   H128      1.0  0.02214  0.23569  0.45277  1.0000
  H   H129      1.0  0.09903  0.35296  0.46179  1.0000
  N   N11       1.0  0.09245  0.30378  0.48387  1.0000
  H   H130      1.0  0.10386  0.31155  0.52833  1.0000
  H   H131      1.0  0.08959  0.28523  0.48851  1.0000
  C   C201      1.0  0.92840  0.64439  0.34551  1.0000
  C   C202      1.0  0.91807  0.66086  0.41237  1.0000
  C   C203      1.0  0.92379  0.68772  0.41569  1.0000
  C   C204      1.0  0.94032  0.69852  0.34880  1.0000
  C   C205      1.0  0.94657  0.72539  0.34589  1.0000
  C   C206      1.0  0.96484  0.73612  0.40582  1.0000
  C   C207      1.0  0.97036  0.76286  0.40465  1.0000
  C   C208      1.0  0.95767  0.77980  0.34424  1.0000
  H   H132      1.0  0.97411  0.72456  0.45133  1.0000
  H   H133      1.0  0.98337  0.76996  0.45023  1.0000
  H   H134      1.0  0.90614  0.65306  0.46020  1.0000
  N   N12       1.0  0.91289  0.70222  0.48196  1.0000
  H   H135      1.0  0.90154  0.69450  0.52668  1.0000
  H   H136      1.0  0.91581  0.72077  0.48649  1.0000
  C   C209      1.0  0.64430  0.07643  0.34704  1.0000
  C   C210      1.0  0.66067  0.08685  0.41413  1.0000
  C   C211      1.0  0.68744  0.08122  0.41770  1.0000
  C   C212      1.0  0.69824  0.06473  0.35080  1.0000
  C   C213      1.0  0.72503  0.05862  0.34797  1.0000
  C   C214      1.0  0.73573  0.04042  0.40811  1.0000
  C   C215      1.0  0.76237  0.03498  0.40680  1.0000
  C   C216      1.0  0.77926  0.04770  0.34606  1.0000
  H   H137      1.0  0.72421  0.03112  0.45385  1.0000
  H   H138      1.0  0.76946  0.02204  0.45256  1.0000
  H   H139      1.0  0.65286  0.09878  0.46188  1.0000
  N   N13       1.0  0.70186  0.09220  0.48415  1.0000
  H   H140      1.0  0.69414  0.10356  0.52880  1.0000
  H   H141      1.0  0.72034  0.08939  0.48877  1.0000
  C   C217      1.0  0.36101  0.92805  0.34510  1.0000
  C   C218      1.0  0.34432  0.91727  0.41055  1.0000
  C   C219      1.0  0.31759  0.92311  0.41368  1.0000
  C   C220      1.0  0.30715  0.94026  0.34812  1.0000
  C   C221      1.0  0.28044  0.94667  0.34509  1.0000
  C   C222      1.0  0.26990  0.96497  0.40523  1.0000
  C   C223      1.0  0.24330  0.97060  0.40404  1.0000
  C   C224      1.0  0.22629  0.95798  0.34348  1.0000
  H   H142      1.0  0.28151  0.97415  0.45097  1.0000
  H   H143      1.0  0.23633  0.98359  0.44989  1.0000
  H   H144      1.0  0.35185  0.90493  0.45757  1.0000
  N   N14       1.0  0.30286  0.91176  0.47855  1.0000
  H   H145      1.0  0.31033  0.89998  0.52239  1.0000
  H   H146      1.0  0.28440  0.91478  0.48292  1.0000
  C   C225      1.0  0.45050  0.82293  0.39977  1.0000
  C   C226      1.0  0.44481  0.84955  0.40051  1.0000
  H   H147      1.0  0.46247  0.81573  0.44846  1.0000
  H   H148      1.0  0.45246  0.86086  0.45041  1.0000
  C   C227      1.0  0.43948  0.73616  0.39904  1.0000
  C   C228      1.0  0.43399  0.76287  0.39823  1.0000
  H   H149      1.0  0.43018  0.72473  0.44499  1.0000
  H   H150      1.0  0.42059  0.76998  0.44227  1.0000
  C   C229      1.0  0.55572  0.18152  0.39991  1.0000
  C   C230      1.0  0.56136  0.15490  0.40104  1.0000
  H   H151      1.0  0.54448  0.18896  0.45026  1.0000
  H   H152      1.0  0.55441  0.14380  0.45271  1.0000
  C   C231      1.0  0.56592  0.26802  0.39647  1.0000
  C   C232      1.0  0.57141  0.24132  0.39548  1.0000
  H   H153      1.0  0.57527  0.27944  0.44235  1.0000
  H   H154      1.0  0.58486  0.23419  0.43933  1.0000
  C   C233      1.0  0.82334  0.55504  0.40062  1.0000
  C   C234      1.0  0.84995  0.56063  0.40147  1.0000
  H   H155      1.0  0.81593  0.54350  0.45038  1.0000
  H   H156      1.0  0.86104  0.55336  0.45242  1.0000
  C   C235      1.0  0.73704  0.56604  0.39815  1.0000
  C   C236      1.0  0.76373  0.57140  0.39737  1.0000
  H   H157      1.0  0.72574  0.57548  0.44398  1.0000
  H   H158      1.0  0.77097  0.58483  0.44131  1.0000
  C   C237      1.0  0.18198  0.45000  0.39901  1.0000
  C   C238      1.0  0.15532  0.44468  0.39998  1.0000
  H   H159      1.0  0.18957  0.46126  0.44920  1.0000
  H   H160      1.0  0.14436  0.45184  0.45149  1.0000
  C   C239      1.0  0.26808  0.43837  0.39613  1.0000
  C   C240      1.0  0.24135  0.43323  0.39511  1.0000
  H   H161      1.0  0.27928  0.42883  0.44202  1.0000
  H   H162      1.0  0.23398  0.41983  0.43891  1.0000
  C   C241      1.0  0.07838  0.13496  0.33931  1.0000
  C   C242      1.0  0.09650  0.13321  0.41001  1.0000
  C   C243      1.0  0.11439  0.11252  0.41560  1.0000
  C   C244      1.0  0.11436  0.09322  0.34696  1.0000
  C   C245      1.0  0.12898  0.06994  0.35276  1.0000
  C   C246      1.0  0.12307  0.05154  0.42003  1.0000
  C   C247      1.0  0.13510  0.02717  0.42060  1.0000
  C   C248      1.0  0.15345  0.02043  0.35415  1.0000
  H   H163      1.0  0.10919  0.05534  0.46715  1.0000
  H   H164      1.0  0.12977  0.01404  0.46877  1.0000
  H   H165      1.0  0.09583  0.14659  0.46079  1.0000
  N   N15       1.0  0.13093  0.11181  0.48664  1.0000
  H   H166      1.0  0.13082  0.12525  0.53255  1.0000
  H   H167      1.0  0.14415  0.09861  0.49194  1.0000
  C   C249      1.0  0.92723  0.87093  0.33877  1.0000
  C   C250      1.0  0.90931  0.87276  0.41007  1.0000
  C   C251      1.0  0.89150  0.89352  0.41610  1.0000
  C   C252      1.0  0.89139  0.91275  0.34726  1.0000
  C   C253      1.0  0.87683  0.93606  0.35329  1.0000
  C   C254      1.0  0.88295  0.95451  0.42015  1.0000
  C   C255      1.0  0.87092  0.97889  0.42093  1.0000
  C   C256      1.0  0.85235  0.98557  0.35517  1.0000
  H   H168      1.0  0.89697  0.95074  0.46680  1.0000
  H   H169      1.0  0.87636  0.99203  0.46891  1.0000
  H   H170      1.0  0.91012  0.85944  0.46099  1.0000
  N   N16       1.0  0.87518  0.89434  0.48774  1.0000
  H   H171      1.0  0.87540  0.88094  0.53378  1.0000
  H   H172      1.0  0.86202  0.90758  0.49339  1.0000
  C   C257      1.0  0.87019  0.07854  0.33913  1.0000
  C   C258      1.0  0.87249  0.09626  0.41103  1.0000
  C   C259      1.0  0.89343  0.11397  0.41686  1.0000
  C   C260      1.0  0.91241  0.11412  0.34735  1.0000
  C   C261      1.0  0.93588  0.12848  0.35318  1.0000
  C   C262      1.0  0.95434  0.12197  0.41928  1.0000
  C   C263      1.0  0.97883  0.13380  0.41983  1.0000
  C   C264      1.0  0.98562  0.15257  0.35458  1.0000
  H   H173      1.0  0.95048  0.10779  0.46550  1.0000
  H   H174      1.0  0.99193  0.12811  0.46734  1.0000
  H   H175      1.0  0.85937  0.09538  0.46247  1.0000
  N   N17       1.0  0.89470  0.13011  0.48907  1.0000
  H   H176      1.0  0.88141  0.12995  0.53535  1.0000
  H   H177      1.0  0.90802  0.14328  0.49441  1.0000
  C   C265      1.0  0.13522  0.92753  0.33749  1.0000
  C   C266      1.0  0.13308  0.90960  0.40885  1.0000
  C   C267      1.0  0.11216  0.89186  0.41464  1.0000
  C   C268      1.0  0.09305  0.89187  0.34558  1.0000
  C   C269      1.0  0.06961  0.87745  0.35144  1.0000
  C   C270      1.0  0.05124  0.88375  0.41812  1.0000
  C   C271      1.0  0.02679  0.87185  0.41880  1.0000
  C   C272      1.0  0.01994  0.85321  0.35316  1.0000
  H   H178      1.0  0.05514  0.89784  0.46464  1.0000
  H   H179      1.0  0.01373  0.87741  0.46666  1.0000
  H   H180      1.0  0.14632  0.91033  0.45994  1.0000
  N   N18       1.0  0.11106  0.87551  0.48631  1.0000
  H   H181      1.0  0.12441  0.87561  0.53238  1.0000
  H   H182      1.0  0.09772  0.86236  0.49169  1.0000
  C   C273      1.0  0.40904  0.59439  0.41025  1.0000
  C   C274      1.0  0.42672  0.61503  0.41399  1.0000
  H   H183      1.0  0.40994  0.58047  0.45918  1.0000
  H   H184      1.0  0.43974  0.61562  0.46575  1.0000
  C   C275      1.0  0.34607  0.53742  0.39484  1.0000
  C   C276      1.0  0.35835  0.56182  0.39645  1.0000
  H   H185      1.0  0.33326  0.53293  0.44485  1.0000
  H   H186      1.0  0.35386  0.57457  0.44668  1.0000
  C   C277      1.0  0.59623  0.40983  0.40889  1.0000
  C   C278      1.0  0.57850  0.38923  0.41235  1.0000
  H   H187      1.0  0.59529  0.42375  0.45782  1.0000
  H   H188      1.0  0.56544  0.38864  0.46397  1.0000
  C   C279      1.0  0.65923  0.46673  0.39485  1.0000
  C   C280      1.0  0.64696  0.44233  0.39609  1.0000
  H   H189      1.0  0.67198  0.47120  0.44510  1.0000
  H   H190      1.0  0.65133  0.42958  0.44646  1.0000
  C   C281      1.0  0.59588  0.59677  0.41048  1.0000
  C   C282      1.0  0.61645  0.57916  0.41421  1.0000
  H   H191      1.0  0.58212  0.59593  0.45989  1.0000
  H   H192      1.0  0.61718  0.56627  0.46643  1.0000
  C   C283      1.0  0.53877  0.65919  0.39499  1.0000
  C   C284      1.0  0.56314  0.64711  0.39626  1.0000
  H   H193      1.0  0.53432  0.67204  0.44495  1.0000
  H   H194      1.0  0.57589  0.65176  0.44631  1.0000
  C   C285      1.0  0.40934  0.40725  0.40991  1.0000
  C   C286      1.0  0.38877  0.42486  0.41372  1.0000
  H   H195      1.0  0.42312  0.40810  0.45922  1.0000
  H   H196      1.0  0.38808  0.43778  0.46588  1.0000
  C   C287      1.0  0.46654  0.34491  0.39382  1.0000
  C   C288      1.0  0.44215  0.35694  0.39532  1.0000
  H   H197      1.0  0.47105  0.33205  0.44371  1.0000
  H   H198      1.0  0.42943  0.35226  0.44545  1.0000
