data_image0
_chemical_formula_structural       C16H10C4NC2NC2H2CH3CH3C9H6C2H2CH3CH3C6N2C16H10C4NC2NC2H2CH3CH3C9H6C2H2CH3CH3C6N2C16H10C4NC2NC2H2CH3CH3C9H6C2H2CH3CH3C6N2C16H10C4NC2NC2H2CH3CH3C9H6C2H2CH3CH3C6N2C16H10C4NC2NC2H2CH3CH3C9H6C2H2CH3CH3C6N2C16H10C4NC2NC2H2CH3CH3C9H6C2H2CH3CH3C6N2C16H10C4NC2NC2H2CH3CH3C9H6C2H2CH3CH3C6N2C16H10C4NC2NC2H2CH3CH3C9H6C2H2CH3CH3C6N2C16H10C4NC2NC2H2CH3CH3C9H6C2H2CH3CH3C6N2
_chemical_formula_sum              "C405 H288 N36"
_cell_length_a       36.4592
_cell_length_b       36.4598
_cell_length_c       15.1142
_cell_angle_alpha    90
_cell_angle_beta     90
_cell_angle_gamma    89.9302

_space_group_name_H-M_alt    "P 1"
_space_group_IT_number       1

loop_
  _space_group_symop_operation_xyz
  'x, y, z'

loop_
  _atom_site_type_symbol
  _atom_site_label
  _atom_site_symmetry_multiplicity
  _atom_site_fract_x
  _atom_site_fract_y
  _atom_site_fract_z
  _atom_site_occupancy
  C   C1        1.0  0.01658  0.24058  0.28054  1.0000
  C   C2        1.0  0.04501  0.25822  0.23361  1.0000
  C   C3        1.0  0.03619  0.28563  0.17186  1.0000
  C   C4        1.0  0.99965  0.29839  0.16020  1.0000
  C   C5        1.0  0.30674  0.28571  0.22243  1.0000
  C   C6        1.0  0.31461  0.25661  0.28007  1.0000
  C   C7        1.0  0.98967  0.99581  0.09605  1.0000
  C   C8        1.0  0.98863  0.02815  0.16030  1.0000
  C   C9        1.0  0.28927  0.04644  0.18589  1.0000
  C   C10       1.0  0.28976  0.07673  0.24332  1.0000
  C   C11       1.0  0.98987  0.08887  0.27982  1.0000
  C   C12       1.0  0.02189  0.06797  0.26581  1.0000
  C   C13       1.0  0.02114  0.03881  0.20555  1.0000
  C   C14       1.0  0.01689  0.99937  0.01978  1.0000
  C   C15       1.0  0.28767  0.32289  0.04382  1.0000
  C   C16       1.0  0.27194  0.28759  0.03140  1.0000
  H   H1        1.0  0.28272  0.26493  0.06142  1.0000
  H   H2        1.0  0.03207  0.05538  0.03440  1.0000
  H   H3        1.0  0.04560  0.02683  0.19010  1.0000
  H   H4        1.0  0.04698  0.07759  0.28575  1.0000
  H   H5        1.0  0.26662  0.09255  0.24864  1.0000
  H   H6        1.0  0.26473  0.03967  0.15834  1.0000
  H   H7        1.0  0.28031  0.29493  0.21957  1.0000
  H   H8        1.0  0.05694  0.29525  0.13300  1.0000
  H   H9        1.0  0.07036  0.24620  0.22919  1.0000
  H   H10       1.0  0.29304  0.24405  0.31125  1.0000
  C   C17       1.0  0.35017  0.20182  0.28518  1.0000
  C   C18       1.0  0.34873  0.18211  0.20424  1.0000
  C   C19       1.0  0.00357  0.14534  0.20296  1.0000
  C   C20       1.0  0.99571  0.12701  0.28335  1.0000
  N   N1        1.0  0.99947  0.12886  0.12256  1.0000
  C   C21       1.0  0.00720  0.14480  0.04357  1.0000
  C   C22       1.0  0.35520  0.18064  0.04518  1.0000
  N   N2        1.0  0.35761  0.19747  0.12497  1.0000
  C   C23       1.0  0.18212  0.33538  0.34112  1.0000
  C   C24       1.0  0.14387  0.34105  0.33017  1.0000
  H   H11       1.0  0.10920  0.31094  0.02822  1.0000
  H   H12       1.0  0.17247  0.30076  0.04586  1.0000
  C   C25       1.0  0.20918  0.33947  0.26943  1.0000
  H   H13       1.0  0.23697  0.33518  0.29408  1.0000
  H   H14       1.0  0.20745  0.03380  0.24225  1.0000
  H   H15       1.0  0.20385  0.31953  0.21715  1.0000
  C   C26       1.0  0.12552  0.35101  0.24629  1.0000
  H   H16       1.0  0.14441  0.35360  0.19081  1.0000
  H   H17       1.0  0.11133  0.04382  0.25442  1.0000
  H   H18       1.0  0.10554  0.32989  0.22970  1.0000
  C   C27       1.0  0.27297  0.01842  0.65804  1.0000
  C   C28       1.0  0.24172  0.01361  0.60526  1.0000
  C   C29       1.0  0.22484  0.31226  0.59995  1.0000
  C   C30       1.0  0.24099  0.28231  0.64447  1.0000
  C   C31       1.0  0.02303  0.30222  0.62962  1.0000
  C   C32       1.0  0.05000  0.30250  0.56357  1.0000
  C   C33       1.0  0.07342  0.99977  0.55644  1.0000
  C   C34       1.0  0.06366  0.03252  0.60060  1.0000
  C   C35       1.0  0.03578  0.03213  0.66478  1.0000
  H   H19       1.0  0.22990  0.03618  0.57662  1.0000
  H   H20       1.0  0.28411  0.04405  0.66130  1.0000
  H   H21       1.0  0.22866  0.25707  0.64384  1.0000
  H   H22       1.0  0.00976  0.27808  0.64103  1.0000
  H   H23       1.0  0.05745  0.27791  0.53598  1.0000
  H   H24       1.0  0.08123  0.05444  0.59996  1.0000
  C   C36       1.0  0.99911  0.14591  0.36430  1.0000
  C   C37       1.0  0.34129  0.18348  0.36475  1.0000
  H   H25       1.0  0.34079  0.19752  0.42335  1.0000
  H   H26       1.0  0.99360  0.13285  0.42267  1.0000
  C   C38       1.0  0.99940  0.12469  0.62763  1.0000
  H   H27       1.0  0.98624  0.09850  0.64128  1.0000
  H   H28       1.0  0.02477  0.11955  0.59143  1.0000
  H   H29       1.0  0.31416  0.14078  0.58647  1.0000
  C   C39       1.0  0.36794  0.20038  0.63242  1.0000
  H   H30       1.0  0.38694  0.18331  0.59476  1.0000
  H   H31       1.0  0.04910  0.22536  0.65084  1.0000
  H   H32       1.0  0.34455  0.20752  0.59084  1.0000
  C   C40       1.0  0.11106  0.32426  0.55759  1.0000
  C   C41       1.0  0.13463  0.32751  0.48395  1.0000
  C   C42       1.0  0.17285  0.32137  0.49469  1.0000
  C   C43       1.0  0.18722  0.31102  0.57818  1.0000
  C   C44       1.0  0.16298  0.30651  0.65017  1.0000
  C   C45       1.0  0.12556  0.31296  0.63997  1.0000
  N   N3        1.0  0.19467  0.32592  0.42275  1.0000
  N   N4        1.0  0.12207  0.33709  0.40253  1.0000
  C   C46       1.0  0.01657  0.57391  0.28054  1.0000
  C   C47       1.0  0.04501  0.59155  0.23361  1.0000
  C   C48       1.0  0.03619  0.61897  0.17186  1.0000
  C   C49       1.0  0.99965  0.63172  0.16020  1.0000
  C   C50       1.0  0.30674  0.61904  0.22243  1.0000
  C   C51       1.0  0.31461  0.58995  0.28007  1.0000
  C   C52       1.0  0.98967  0.32914  0.09605  1.0000
  C   C53       1.0  0.98863  0.36148  0.16030  1.0000
  C   C54       1.0  0.28927  0.37977  0.18589  1.0000
  C   C55       1.0  0.28976  0.41006  0.24332  1.0000
  C   C56       1.0  0.98987  0.42221  0.27982  1.0000
  C   C57       1.0  0.02189  0.40130  0.26581  1.0000
  C   C58       1.0  0.02114  0.37214  0.20555  1.0000
  C   C59       1.0  0.01689  0.33270  0.01978  1.0000
  C   C60       1.0  0.28767  0.65622  0.04382  1.0000
  C   C61       1.0  0.27194  0.62093  0.03140  1.0000
  H   H33       1.0  0.28272  0.59827  0.06141  1.0000
  H   H34       1.0  0.03207  0.38871  0.03440  1.0000
  H   H35       1.0  0.04560  0.36016  0.19010  1.0000
  H   H36       1.0  0.04698  0.41092  0.28575  1.0000
  H   H37       1.0  0.26662  0.42588  0.24864  1.0000
  H   H38       1.0  0.26473  0.37300  0.15834  1.0000
  H   H39       1.0  0.28031  0.62826  0.21957  1.0000
  H   H40       1.0  0.05694  0.62859  0.13300  1.0000
  H   H41       1.0  0.07036  0.57953  0.22919  1.0000
  H   H42       1.0  0.29304  0.57738  0.31125  1.0000
  C   C62       1.0  0.35016  0.53515  0.28518  1.0000
  C   C63       1.0  0.34873  0.51544  0.20424  1.0000
  C   C64       1.0  0.00356  0.47867  0.20296  1.0000
  C   C65       1.0  0.99571  0.46035  0.28335  1.0000
  N   N5        1.0  0.99947  0.46219  0.12256  1.0000
  C   C66       1.0  0.00720  0.47813  0.04357  1.0000
  C   C67       1.0  0.35519  0.51397  0.04518  1.0000
  N   N6        1.0  0.35761  0.53080  0.12497  1.0000
  C   C68       1.0  0.18212  0.66871  0.34112  1.0000
  C   C69       1.0  0.14387  0.67438  0.33017  1.0000
  H   H43       1.0  0.10920  0.64427  0.02822  1.0000
  H   H44       1.0  0.17247  0.63409  0.04586  1.0000
  C   C70       1.0  0.20918  0.67280  0.26943  1.0000
  H   H45       1.0  0.23697  0.66851  0.29408  1.0000
  H   H46       1.0  0.20745  0.36713  0.24225  1.0000
  H   H47       1.0  0.20385  0.65286  0.21715  1.0000
  C   C71       1.0  0.12552  0.68434  0.24629  1.0000
  H   H48       1.0  0.14441  0.68693  0.19081  1.0000
  H   H49       1.0  0.11133  0.37715  0.25442  1.0000
  H   H50       1.0  0.10554  0.66322  0.22970  1.0000
  C   C72       1.0  0.27297  0.35175  0.65804  1.0000
  C   C73       1.0  0.24172  0.34694  0.60526  1.0000
  C   C74       1.0  0.22484  0.64559  0.59995  1.0000
  C   C75       1.0  0.24099  0.61564  0.64447  1.0000
  C   C76       1.0  0.02303  0.63555  0.62962  1.0000
  C   C77       1.0  0.05000  0.63583  0.56357  1.0000
  C   C78       1.0  0.07342  0.33310  0.55644  1.0000
  C   C79       1.0  0.06366  0.36585  0.60060  1.0000
  C   C80       1.0  0.03578  0.36546  0.66478  1.0000
  H   H51       1.0  0.22990  0.36951  0.57662  1.0000
  H   H52       1.0  0.28411  0.37739  0.66130  1.0000
  H   H53       1.0  0.22866  0.59041  0.64384  1.0000
  H   H54       1.0  0.00976  0.61142  0.64103  1.0000
  H   H55       1.0  0.05745  0.61125  0.53598  1.0000
  H   H56       1.0  0.08123  0.38778  0.59996  1.0000
  C   C81       1.0  0.99911  0.47924  0.36430  1.0000
  C   C82       1.0  0.34129  0.51681  0.36475  1.0000
  H   H57       1.0  0.34079  0.53086  0.42335  1.0000
  H   H58       1.0  0.99360  0.46619  0.42267  1.0000
  C   C83       1.0  0.99940  0.45802  0.62763  1.0000
  H   H59       1.0  0.98624  0.43183  0.64128  1.0000
  H   H60       1.0  0.02477  0.45289  0.59143  1.0000
  H   H61       1.0  0.31416  0.47412  0.58647  1.0000
  C   C84       1.0  0.36793  0.53371  0.63242  1.0000
  H   H62       1.0  0.38694  0.51665  0.59476  1.0000
  H   H63       1.0  0.04910  0.55869  0.65084  1.0000
  H   H64       1.0  0.34455  0.54086  0.59084  1.0000
  C   C85       1.0  0.11106  0.65759  0.55759  1.0000
  C   C86       1.0  0.13463  0.66084  0.48395  1.0000
  C   C87       1.0  0.17285  0.65471  0.49469  1.0000
  C   C88       1.0  0.18722  0.64435  0.57818  1.0000
  C   C89       1.0  0.16298  0.63984  0.65017  1.0000
  C   C90       1.0  0.12556  0.64629  0.63997  1.0000
  N   N7        1.0  0.19467  0.65926  0.42275  1.0000
  N   N8        1.0  0.12207  0.67042  0.40253  1.0000
  C   C91       1.0  0.01657  0.90725  0.28054  1.0000
  C   C92       1.0  0.04501  0.92488  0.23361  1.0000
  C   C93       1.0  0.03619  0.95230  0.17186  1.0000
  C   C94       1.0  0.99965  0.96505  0.16020  1.0000
  C   C95       1.0  0.30674  0.95237  0.22243  1.0000
  C   C96       1.0  0.31461  0.92328  0.28007  1.0000
  C   C97       1.0  0.98967  0.66248  0.09605  1.0000
  C   C98       1.0  0.98863  0.69481  0.16030  1.0000
  C   C99       1.0  0.28927  0.71310  0.18589  1.0000
  C   C100      1.0  0.28976  0.74339  0.24332  1.0000
  C   C101      1.0  0.98987  0.75554  0.27982  1.0000
  C   C102      1.0  0.02189  0.73463  0.26581  1.0000
  C   C103      1.0  0.02114  0.70547  0.20555  1.0000
  C   C104      1.0  0.01689  0.66603  0.01978  1.0000
  C   C105      1.0  0.28767  0.98955  0.04382  1.0000
  C   C106      1.0  0.27194  0.95426  0.03140  1.0000
  H   H65       1.0  0.28272  0.93160  0.06141  1.0000
  H   H66       1.0  0.03207  0.72205  0.03440  1.0000
  H   H67       1.0  0.04560  0.69349  0.19010  1.0000
  H   H68       1.0  0.04698  0.74425  0.28575  1.0000
  H   H69       1.0  0.26662  0.75922  0.24864  1.0000
  H   H70       1.0  0.26473  0.70633  0.15834  1.0000
  H   H71       1.0  0.28031  0.96160  0.21957  1.0000
  H   H72       1.0  0.05694  0.96192  0.13300  1.0000
  H   H73       1.0  0.07036  0.91286  0.22919  1.0000
  H   H74       1.0  0.29304  0.91072  0.31125  1.0000
  C   C107      1.0  0.35017  0.86849  0.28518  1.0000
  C   C108      1.0  0.34872  0.84877  0.20424  1.0000
  C   C109      1.0  0.00356  0.81200  0.20296  1.0000
  C   C110      1.0  0.99571  0.79368  0.28335  1.0000
  N   N9        1.0  0.99947  0.79552  0.12256  1.0000
  C   C111      1.0  0.00720  0.81146  0.04357  1.0000
  C   C112      1.0  0.35519  0.84730  0.04518  1.0000
  N   N10       1.0  0.35761  0.86414  0.12497  1.0000
  C   C113      1.0  0.18212  0.00205  0.34112  1.0000
  C   C114      1.0  0.14387  0.00772  0.33017  1.0000
  H   H75       1.0  0.10920  0.97760  0.02822  1.0000
  H   H76       1.0  0.17247  0.96742  0.04586  1.0000
  C   C115      1.0  0.20918  0.00614  0.26943  1.0000
  H   H77       1.0  0.23697  0.00185  0.29408  1.0000
  H   H78       1.0  0.20745  0.70047  0.24225  1.0000
  H   H79       1.0  0.20385  0.98619  0.21715  1.0000
  C   C116      1.0  0.12552  0.01768  0.24629  1.0000
  H   H80       1.0  0.14441  0.02027  0.19081  1.0000
  H   H81       1.0  0.11133  0.71048  0.25442  1.0000
  H   H82       1.0  0.10554  0.99656  0.22970  1.0000
  C   C117      1.0  0.27297  0.68508  0.65804  1.0000
  C   C118      1.0  0.24172  0.68027  0.60526  1.0000
  C   C119      1.0  0.22484  0.97893  0.59995  1.0000
  C   C120      1.0  0.24099  0.94897  0.64447  1.0000
  C   C121      1.0  0.02303  0.96889  0.62962  1.0000
  C   C122      1.0  0.05000  0.96917  0.56357  1.0000
  C   C123      1.0  0.07342  0.66643  0.55644  1.0000
  C   C124      1.0  0.06366  0.69918  0.60060  1.0000
  C   C125      1.0  0.03578  0.69880  0.66478  1.0000
  H   H83       1.0  0.22990  0.70285  0.57662  1.0000
  H   H84       1.0  0.28411  0.71072  0.66130  1.0000
  H   H85       1.0  0.22866  0.92374  0.64384  1.0000
  H   H86       1.0  0.00976  0.94475  0.64103  1.0000
  H   H87       1.0  0.05745  0.94458  0.53598  1.0000
  H   H88       1.0  0.08123  0.72111  0.59996  1.0000
  C   C126      1.0  0.99911  0.81258  0.36430  1.0000
  C   C127      1.0  0.34129  0.85014  0.36475  1.0000
  H   H89       1.0  0.34079  0.86419  0.42335  1.0000
  H   H90       1.0  0.99360  0.79952  0.42267  1.0000
  C   C128      1.0  0.99940  0.79135  0.62763  1.0000
  H   H91       1.0  0.98624  0.76516  0.64128  1.0000
  H   H92       1.0  0.02477  0.78622  0.59143  1.0000
  H   H93       1.0  0.31416  0.80745  0.58647  1.0000
  C   C129      1.0  0.36794  0.86704  0.63242  1.0000
  H   H94       1.0  0.38694  0.84998  0.59476  1.0000
  H   H95       1.0  0.04910  0.89203  0.65084  1.0000
  H   H96       1.0  0.34455  0.87419  0.59084  1.0000
  C   C130      1.0  0.11106  0.99092  0.55759  1.0000
  C   C131      1.0  0.13463  0.99417  0.48395  1.0000
  C   C132      1.0  0.17285  0.98804  0.49469  1.0000
  C   C133      1.0  0.18722  0.97769  0.57818  1.0000
  C   C134      1.0  0.16298  0.97318  0.65017  1.0000
  C   C135      1.0  0.12556  0.97962  0.63997  1.0000
  N   N11       1.0  0.19467  0.99259  0.42275  1.0000
  N   N12       1.0  0.12207  0.00375  0.40253  1.0000
  C   C136      1.0  0.34991  0.24058  0.28054  1.0000
  C   C137      1.0  0.37834  0.25822  0.23361  1.0000
  C   C138      1.0  0.36952  0.28563  0.17186  1.0000
  C   C139      1.0  0.33298  0.29839  0.16020  1.0000
  C   C140      1.0  0.64007  0.28571  0.22243  1.0000
  C   C141      1.0  0.64794  0.25661  0.28007  1.0000
  C   C142      1.0  0.32300  0.99581  0.09605  1.0000
  C   C143      1.0  0.32197  0.02815  0.16030  1.0000
  C   C144      1.0  0.62260  0.04644  0.18589  1.0000
  C   C145      1.0  0.62309  0.07673  0.24332  1.0000
  C   C146      1.0  0.32320  0.08887  0.27982  1.0000
  C   C147      1.0  0.35522  0.06797  0.26581  1.0000
  C   C148      1.0  0.35447  0.03881  0.20555  1.0000
  C   C149      1.0  0.35023  0.99937  0.01978  1.0000
  C   C150      1.0  0.62101  0.32289  0.04382  1.0000
  C   C151      1.0  0.60528  0.28759  0.03140  1.0000
  H   H97       1.0  0.61606  0.26493  0.06142  1.0000
  H   H98       1.0  0.36540  0.05538  0.03440  1.0000
  H   H99       1.0  0.37893  0.02683  0.19010  1.0000
  H   H100      1.0  0.38031  0.07759  0.28575  1.0000
  H   H101      1.0  0.59995  0.09255  0.24864  1.0000
  H   H102      1.0  0.59806  0.03967  0.15834  1.0000
  H   H103      1.0  0.61365  0.29493  0.21957  1.0000
  H   H104      1.0  0.39027  0.29525  0.13300  1.0000
  H   H105      1.0  0.40369  0.24620  0.22919  1.0000
  H   H106      1.0  0.62638  0.24405  0.31125  1.0000
  C   C152      1.0  0.68350  0.20182  0.28518  1.0000
  C   C153      1.0  0.68206  0.18211  0.20424  1.0000
  C   C154      1.0  0.33690  0.14534  0.20296  1.0000
  C   C155      1.0  0.32905  0.12701  0.28335  1.0000
  N   N13       1.0  0.33280  0.12886  0.12256  1.0000
  C   C156      1.0  0.34054  0.14480  0.04357  1.0000
  C   C157      1.0  0.68853  0.18064  0.04518  1.0000
  N   N14       1.0  0.69094  0.19747  0.12497  1.0000
  C   C158      1.0  0.51545  0.33538  0.34112  1.0000
  C   C159      1.0  0.47720  0.34105  0.33017  1.0000
  H   H107      1.0  0.44253  0.31094  0.02822  1.0000
  H   H108      1.0  0.50581  0.30076  0.04586  1.0000
  C   C160      1.0  0.54252  0.33947  0.26943  1.0000
  H   H109      1.0  0.57031  0.33518  0.29408  1.0000
  H   H110      1.0  0.54078  0.03380  0.24225  1.0000
  H   H111      1.0  0.53718  0.31953  0.21715  1.0000
  C   C161      1.0  0.45885  0.35101  0.24629  1.0000
  H   H112      1.0  0.47775  0.35360  0.19081  1.0000
  H   H113      1.0  0.44466  0.04382  0.25442  1.0000
  H   H114      1.0  0.43887  0.32989  0.22970  1.0000
  C   C162      1.0  0.60630  0.01842  0.65804  1.0000
  C   C163      1.0  0.57505  0.01361  0.60526  1.0000
  C   C164      1.0  0.55817  0.31226  0.59995  1.0000
  C   C165      1.0  0.57433  0.28231  0.64447  1.0000
  C   C166      1.0  0.35636  0.30222  0.62962  1.0000
  C   C167      1.0  0.38333  0.30250  0.56357  1.0000
  C   C168      1.0  0.40675  0.99977  0.55644  1.0000
  C   C169      1.0  0.39700  0.03252  0.60060  1.0000
  C   C170      1.0  0.36912  0.03213  0.66478  1.0000
  H   H115      1.0  0.56324  0.03618  0.57662  1.0000
  H   H116      1.0  0.61744  0.04405  0.66130  1.0000
  H   H117      1.0  0.56200  0.25707  0.64384  1.0000
  H   H118      1.0  0.34309  0.27808  0.64103  1.0000
  H   H119      1.0  0.39078  0.27791  0.53598  1.0000
  H   H120      1.0  0.41456  0.05444  0.59996  1.0000
  C   C171      1.0  0.33244  0.14591  0.36430  1.0000
  C   C172      1.0  0.67463  0.18348  0.36475  1.0000
  H   H121      1.0  0.67412  0.19752  0.42335  1.0000
  H   H122      1.0  0.32693  0.13285  0.42267  1.0000
  C   C173      1.0  0.33274  0.12469  0.62763  1.0000
  H   H123      1.0  0.31957  0.09850  0.64128  1.0000
  H   H124      1.0  0.35811  0.11955  0.59143  1.0000
  H   H125      1.0  0.64749  0.14078  0.58647  1.0000
  C   C174      1.0  0.70127  0.20038  0.63242  1.0000
  H   H126      1.0  0.72028  0.18331  0.59476  1.0000
  H   H127      1.0  0.38243  0.22536  0.65084  1.0000
  H   H128      1.0  0.67788  0.20752  0.59084  1.0000
  C   C175      1.0  0.44440  0.32426  0.55759  1.0000
  C   C176      1.0  0.46797  0.32751  0.48395  1.0000
  C   C177      1.0  0.50618  0.32137  0.49469  1.0000
  C   C178      1.0  0.52055  0.31102  0.57818  1.0000
  C   C179      1.0  0.49631  0.30651  0.65017  1.0000
  C   C180      1.0  0.45889  0.31296  0.63997  1.0000
  N   N15       1.0  0.52800  0.32592  0.42275  1.0000
  N   N16       1.0  0.45540  0.33709  0.40253  1.0000
  C   C181      1.0  0.34991  0.57391  0.28054  1.0000
  C   C182      1.0  0.37834  0.59155  0.23361  1.0000
  C   C183      1.0  0.36952  0.61897  0.17186  1.0000
  C   C184      1.0  0.33298  0.63172  0.16020  1.0000
  C   C185      1.0  0.64007  0.61904  0.22243  1.0000
  C   C186      1.0  0.64794  0.58995  0.28007  1.0000
  C   C187      1.0  0.32300  0.32914  0.09605  1.0000
  C   C188      1.0  0.32197  0.36148  0.16030  1.0000
  C   C189      1.0  0.62260  0.37977  0.18589  1.0000
  C   C190      1.0  0.62309  0.41006  0.24332  1.0000
  C   C191      1.0  0.32320  0.42221  0.27982  1.0000
  C   C192      1.0  0.35522  0.40130  0.26581  1.0000
  C   C193      1.0  0.35447  0.37214  0.20555  1.0000
  C   C194      1.0  0.35023  0.33270  0.01978  1.0000
  C   C195      1.0  0.62101  0.65622  0.04382  1.0000
  C   C196      1.0  0.60528  0.62093  0.03140  1.0000
  H   H129      1.0  0.61606  0.59827  0.06141  1.0000
  H   H130      1.0  0.36540  0.38871  0.03440  1.0000
  H   H131      1.0  0.37893  0.36016  0.19010  1.0000
  H   H132      1.0  0.38031  0.41092  0.28575  1.0000
  H   H133      1.0  0.59995  0.42588  0.24864  1.0000
  H   H134      1.0  0.59806  0.37300  0.15834  1.0000
  H   H135      1.0  0.61365  0.62826  0.21957  1.0000
  H   H136      1.0  0.39027  0.62859  0.13300  1.0000
  H   H137      1.0  0.40369  0.57953  0.22919  1.0000
  H   H138      1.0  0.62638  0.57738  0.31125  1.0000
  C   C197      1.0  0.68350  0.53515  0.28518  1.0000
  C   C198      1.0  0.68206  0.51544  0.20424  1.0000
  C   C199      1.0  0.33690  0.47867  0.20296  1.0000
  C   C200      1.0  0.32905  0.46035  0.28335  1.0000
  N   N17       1.0  0.33280  0.46219  0.12256  1.0000
  C   C201      1.0  0.34053  0.47813  0.04357  1.0000
  C   C202      1.0  0.68853  0.51397  0.04518  1.0000
  N   N18       1.0  0.69094  0.53080  0.12497  1.0000
  C   C203      1.0  0.51545  0.66871  0.34112  1.0000
  C   C204      1.0  0.47720  0.67438  0.33017  1.0000
  H   H139      1.0  0.44253  0.64427  0.02822  1.0000
  H   H140      1.0  0.50581  0.63409  0.04586  1.0000
  C   C205      1.0  0.54252  0.67280  0.26943  1.0000
  H   H141      1.0  0.57031  0.66851  0.29408  1.0000
  H   H142      1.0  0.54078  0.36713  0.24225  1.0000
  H   H143      1.0  0.53718  0.65286  0.21715  1.0000
  C   C206      1.0  0.45885  0.68434  0.24629  1.0000
  H   H144      1.0  0.47775  0.68693  0.19081  1.0000
  H   H145      1.0  0.44466  0.37715  0.25442  1.0000
  H   H146      1.0  0.43887  0.66322  0.22970  1.0000
  C   C207      1.0  0.60630  0.35175  0.65804  1.0000
  C   C208      1.0  0.57505  0.34694  0.60526  1.0000
  C   C209      1.0  0.55817  0.64559  0.59995  1.0000
  C   C210      1.0  0.57433  0.61564  0.64447  1.0000
  C   C211      1.0  0.35636  0.63555  0.62962  1.0000
  C   C212      1.0  0.38333  0.63583  0.56357  1.0000
  C   C213      1.0  0.40675  0.33310  0.55644  1.0000
  C   C214      1.0  0.39700  0.36585  0.60060  1.0000
  C   C215      1.0  0.36912  0.36546  0.66478  1.0000
  H   H147      1.0  0.56324  0.36951  0.57662  1.0000
  H   H148      1.0  0.61744  0.37739  0.66130  1.0000
  H   H149      1.0  0.56200  0.59041  0.64384  1.0000
  H   H150      1.0  0.34309  0.61142  0.64103  1.0000
  H   H151      1.0  0.39078  0.61125  0.53598  1.0000
  H   H152      1.0  0.41456  0.38778  0.59996  1.0000
  C   C216      1.0  0.33244  0.47924  0.36430  1.0000
  C   C217      1.0  0.67463  0.51681  0.36475  1.0000
  H   H153      1.0  0.67412  0.53086  0.42335  1.0000
  H   H154      1.0  0.32693  0.46619  0.42267  1.0000
  C   C218      1.0  0.33274  0.45802  0.62763  1.0000
  H   H155      1.0  0.31957  0.43183  0.64128  1.0000
  H   H156      1.0  0.35810  0.45289  0.59143  1.0000
  H   H157      1.0  0.64749  0.47412  0.58647  1.0000
  C   C219      1.0  0.70127  0.53371  0.63242  1.0000
  H   H158      1.0  0.72028  0.51665  0.59476  1.0000
  H   H159      1.0  0.38243  0.55869  0.65084  1.0000
  H   H160      1.0  0.67788  0.54086  0.59084  1.0000
  C   C220      1.0  0.44440  0.65759  0.55759  1.0000
  C   C221      1.0  0.46797  0.66084  0.48395  1.0000
  C   C222      1.0  0.50619  0.65471  0.49469  1.0000
  C   C223      1.0  0.52055  0.64435  0.57818  1.0000
  C   C224      1.0  0.49631  0.63984  0.65017  1.0000
  C   C225      1.0  0.45889  0.64629  0.63997  1.0000
  N   N19       1.0  0.52800  0.65926  0.42275  1.0000
  N   N20       1.0  0.45540  0.67042  0.40253  1.0000
  C   C226      1.0  0.34991  0.90725  0.28054  1.0000
  C   C227      1.0  0.37834  0.92488  0.23361  1.0000
  C   C228      1.0  0.36952  0.95230  0.17186  1.0000
  C   C229      1.0  0.33298  0.96505  0.16020  1.0000
  C   C230      1.0  0.64007  0.95237  0.22243  1.0000
  C   C231      1.0  0.64794  0.92328  0.28007  1.0000
  C   C232      1.0  0.32300  0.66248  0.09605  1.0000
  C   C233      1.0  0.32197  0.69481  0.16030  1.0000
  C   C234      1.0  0.62260  0.71310  0.18589  1.0000
  C   C235      1.0  0.62309  0.74339  0.24332  1.0000
  C   C236      1.0  0.32320  0.75554  0.27982  1.0000
  C   C237      1.0  0.35522  0.73463  0.26581  1.0000
  C   C238      1.0  0.35447  0.70547  0.20555  1.0000
  C   C239      1.0  0.35023  0.66603  0.01978  1.0000
  C   C240      1.0  0.62101  0.98955  0.04382  1.0000
  C   C241      1.0  0.60528  0.95426  0.03140  1.0000
  H   H161      1.0  0.61606  0.93160  0.06141  1.0000
  H   H162      1.0  0.36540  0.72205  0.03440  1.0000
  H   H163      1.0  0.37893  0.69349  0.19010  1.0000
  H   H164      1.0  0.38031  0.74425  0.28575  1.0000
  H   H165      1.0  0.59995  0.75922  0.24864  1.0000
  H   H166      1.0  0.59806  0.70633  0.15834  1.0000
  H   H167      1.0  0.61365  0.96160  0.21957  1.0000
  H   H168      1.0  0.39027  0.96192  0.13300  1.0000
  H   H169      1.0  0.40369  0.91286  0.22919  1.0000
  H   H170      1.0  0.62638  0.91072  0.31125  1.0000
  C   C242      1.0  0.68350  0.86849  0.28518  1.0000
  C   C243      1.0  0.68206  0.84877  0.20424  1.0000
  C   C244      1.0  0.33690  0.81200  0.20296  1.0000
  C   C245      1.0  0.32905  0.79368  0.28335  1.0000
  N   N21       1.0  0.33280  0.79552  0.12256  1.0000
  C   C246      1.0  0.34054  0.81146  0.04357  1.0000
  C   C247      1.0  0.68853  0.84730  0.04518  1.0000
  N   N22       1.0  0.69094  0.86414  0.12497  1.0000
  C   C248      1.0  0.51545  0.00205  0.34112  1.0000
  C   C249      1.0  0.47720  0.00772  0.33017  1.0000
  H   H171      1.0  0.44253  0.97760  0.02822  1.0000
  H   H172      1.0  0.50581  0.96742  0.04586  1.0000
  C   C250      1.0  0.54251  0.00614  0.26943  1.0000
  H   H173      1.0  0.57031  0.00185  0.29408  1.0000
  H   H174      1.0  0.54078  0.70047  0.24225  1.0000
  H   H175      1.0  0.53718  0.98619  0.21715  1.0000
  C   C251      1.0  0.45885  0.01768  0.24629  1.0000
  H   H176      1.0  0.47775  0.02027  0.19081  1.0000
  H   H177      1.0  0.44466  0.71048  0.25442  1.0000
  H   H178      1.0  0.43887  0.99656  0.22970  1.0000
  C   C252      1.0  0.60630  0.68508  0.65804  1.0000
  C   C253      1.0  0.57505  0.68027  0.60526  1.0000
  C   C254      1.0  0.55817  0.97893  0.59995  1.0000
  C   C255      1.0  0.57433  0.94897  0.64447  1.0000
  C   C256      1.0  0.35636  0.96889  0.62962  1.0000
  C   C257      1.0  0.38333  0.96917  0.56357  1.0000
  C   C258      1.0  0.40675  0.66643  0.55644  1.0000
  C   C259      1.0  0.39700  0.69918  0.60060  1.0000
  C   C260      1.0  0.36912  0.69880  0.66478  1.0000
  H   H179      1.0  0.56324  0.70285  0.57662  1.0000
  H   H180      1.0  0.61744  0.71072  0.66130  1.0000
  H   H181      1.0  0.56200  0.92374  0.64384  1.0000
  H   H182      1.0  0.34309  0.94475  0.64103  1.0000
  H   H183      1.0  0.39078  0.94458  0.53598  1.0000
  H   H184      1.0  0.41456  0.72111  0.59996  1.0000
  C   C261      1.0  0.33244  0.81258  0.36430  1.0000
  C   C262      1.0  0.67462  0.85014  0.36475  1.0000
  H   H185      1.0  0.67412  0.86419  0.42335  1.0000
  H   H186      1.0  0.32693  0.79952  0.42267  1.0000
  C   C263      1.0  0.33274  0.79135  0.62763  1.0000
  H   H187      1.0  0.31957  0.76516  0.64128  1.0000
  H   H188      1.0  0.35810  0.78622  0.59143  1.0000
  H   H189      1.0  0.64749  0.80745  0.58647  1.0000
  C   C264      1.0  0.70127  0.86704  0.63242  1.0000
  H   H190      1.0  0.72028  0.84998  0.59476  1.0000
  H   H191      1.0  0.38243  0.89203  0.65084  1.0000
  H   H192      1.0  0.67788  0.87419  0.59084  1.0000
  C   C265      1.0  0.44440  0.99092  0.55759  1.0000
  C   C266      1.0  0.46797  0.99417  0.48395  1.0000
  C   C267      1.0  0.50619  0.98804  0.49469  1.0000
  C   C268      1.0  0.52055  0.97769  0.57818  1.0000
  C   C269      1.0  0.49631  0.97318  0.65017  1.0000
  C   C270      1.0  0.45889  0.97962  0.63997  1.0000
  N   N23       1.0  0.52800  0.99259  0.42275  1.0000
  N   N24       1.0  0.45540  0.00375  0.40253  1.0000
  C   C271      1.0  0.68324  0.24058  0.28054  1.0000
  C   C272      1.0  0.71168  0.25822  0.23361  1.0000
  C   C273      1.0  0.70286  0.28563  0.17186  1.0000
  C   C274      1.0  0.66631  0.29839  0.16020  1.0000
  C   C275      1.0  0.97340  0.28571  0.22243  1.0000
  C   C276      1.0  0.98128  0.25661  0.28007  1.0000
  C   C277      1.0  0.65633  0.99581  0.09605  1.0000
  C   C278      1.0  0.65530  0.02815  0.16030  1.0000
  C   C279      1.0  0.95593  0.04644  0.18589  1.0000
  C   C280      1.0  0.95643  0.07673  0.24332  1.0000
  C   C281      1.0  0.65653  0.08887  0.27982  1.0000
  C   C282      1.0  0.68855  0.06797  0.26581  1.0000
  C   C283      1.0  0.68780  0.03881  0.20555  1.0000
  C   C284      1.0  0.68356  0.99937  0.01978  1.0000
  C   C285      1.0  0.95434  0.32289  0.04382  1.0000
  C   C286      1.0  0.93861  0.28759  0.03140  1.0000
  H   H193      1.0  0.94939  0.26493  0.06142  1.0000
  H   H194      1.0  0.69873  0.05538  0.03440  1.0000
  H   H195      1.0  0.71226  0.02683  0.19010  1.0000
  H   H196      1.0  0.71364  0.07759  0.28575  1.0000
  H   H197      1.0  0.93328  0.09255  0.24864  1.0000
  H   H198      1.0  0.93140  0.03967  0.15834  1.0000
  H   H199      1.0  0.94698  0.29493  0.21957  1.0000
  H   H200      1.0  0.72361  0.29525  0.13300  1.0000
  H   H201      1.0  0.73703  0.24620  0.22919  1.0000
  H   H202      1.0  0.95971  0.24405  0.31125  1.0000
  C   C287      1.0  0.01683  0.20182  0.28518  1.0000
  C   C288      1.0  0.01539  0.18211  0.20424  1.0000
  C   C289      1.0  0.67023  0.14534  0.20296  1.0000
  C   C290      1.0  0.66238  0.12701  0.28335  1.0000
  N   N25       1.0  0.66613  0.12886  0.12256  1.0000
  C   C291      1.0  0.67387  0.14480  0.04357  1.0000
  C   C292      1.0  0.02186  0.18064  0.04518  1.0000
  N   N26       1.0  0.02428  0.19747  0.12497  1.0000
  C   C293      1.0  0.84879  0.33538  0.34112  1.0000
  C   C294      1.0  0.81054  0.34105  0.33017  1.0000
  H   H203      1.0  0.77587  0.31094  0.02822  1.0000
  H   H204      1.0  0.83914  0.30076  0.04586  1.0000
  C   C295      1.0  0.87585  0.33947  0.26943  1.0000
  H   H205      1.0  0.90364  0.33518  0.29408  1.0000
  H   H206      1.0  0.87412  0.03380  0.24225  1.0000
  H   H207      1.0  0.87051  0.31953  0.21715  1.0000
  C   C296      1.0  0.79219  0.35101  0.24629  1.0000
  H   H208      1.0  0.81108  0.35360  0.19081  1.0000
  H   H209      1.0  0.77799  0.04382  0.25442  1.0000
  H   H210      1.0  0.77221  0.32989  0.22970  1.0000
  C   C297      1.0  0.93964  0.01842  0.65804  1.0000
  C   C298      1.0  0.90839  0.01361  0.60526  1.0000
  C   C299      1.0  0.89150  0.31226  0.59995  1.0000
  C   C300      1.0  0.90766  0.28231  0.64447  1.0000
  C   C301      1.0  0.68970  0.30222  0.62962  1.0000
  C   C302      1.0  0.71667  0.30250  0.56357  1.0000
  C   C303      1.0  0.74008  0.99977  0.55644  1.0000
  C   C304      1.0  0.73033  0.03252  0.60060  1.0000
  C   C305      1.0  0.70245  0.03213  0.66478  1.0000
  H   H211      1.0  0.89657  0.03618  0.57662  1.0000
  H   H212      1.0  0.95078  0.04405  0.66130  1.0000
  H   H213      1.0  0.89533  0.25707  0.64384  1.0000
  H   H214      1.0  0.67642  0.27808  0.64103  1.0000
  H   H215      1.0  0.72412  0.27791  0.53598  1.0000
  H   H216      1.0  0.74789  0.05444  0.59996  1.0000
  C   C306      1.0  0.66578  0.14591  0.36430  1.0000
  C   C307      1.0  0.00796  0.18348  0.36475  1.0000
  H   H217      1.0  0.00746  0.19752  0.42335  1.0000
  H   H218      1.0  0.66027  0.13285  0.42267  1.0000
  C   C308      1.0  0.66607  0.12469  0.62763  1.0000
  H   H219      1.0  0.65291  0.09850  0.64128  1.0000
  H   H220      1.0  0.69144  0.11955  0.59143  1.0000
  H   H221      1.0  0.98082  0.14078  0.58647  1.0000
  C   C309      1.0  0.03460  0.20038  0.63242  1.0000
  H   H222      1.0  0.05361  0.18331  0.59476  1.0000
  H   H223      1.0  0.71576  0.22536  0.65084  1.0000
  H   H224      1.0  0.01122  0.20752  0.59084  1.0000
  C   C310      1.0  0.77773  0.32426  0.55759  1.0000
  C   C311      1.0  0.80130  0.32751  0.48395  1.0000
  C   C312      1.0  0.83952  0.32137  0.49469  1.0000
  C   C313      1.0  0.85388  0.31102  0.57818  1.0000
  C   C314      1.0  0.82965  0.30651  0.65017  1.0000
  C   C315      1.0  0.79223  0.31296  0.63997  1.0000
  N   N27       1.0  0.86134  0.32592  0.42275  1.0000
  N   N28       1.0  0.78873  0.33709  0.40253  1.0000
  C   C316      1.0  0.68324  0.57391  0.28054  1.0000
  C   C317      1.0  0.71168  0.59155  0.23361  1.0000
  C   C318      1.0  0.70286  0.61897  0.17186  1.0000
  C   C319      1.0  0.66631  0.63172  0.16020  1.0000
  C   C320      1.0  0.97340  0.61904  0.22243  1.0000
  C   C321      1.0  0.98128  0.58995  0.28007  1.0000
  C   C322      1.0  0.65633  0.32914  0.09605  1.0000
  C   C323      1.0  0.65530  0.36148  0.16030  1.0000
  C   C324      1.0  0.95593  0.37977  0.18589  1.0000
  C   C325      1.0  0.95643  0.41006  0.24332  1.0000
  C   C326      1.0  0.65653  0.42221  0.27982  1.0000
  C   C327      1.0  0.68855  0.40130  0.26581  1.0000
  C   C328      1.0  0.68780  0.37214  0.20555  1.0000
  C   C329      1.0  0.68356  0.33270  0.01978  1.0000
  C   C330      1.0  0.95434  0.65622  0.04382  1.0000
  C   C331      1.0  0.93861  0.62093  0.03140  1.0000
  H   H225      1.0  0.94939  0.59827  0.06141  1.0000
  H   H226      1.0  0.69873  0.38871  0.03440  1.0000
  H   H227      1.0  0.71226  0.36016  0.19010  1.0000
  H   H228      1.0  0.71364  0.41092  0.28575  1.0000
  H   H229      1.0  0.93328  0.42588  0.24864  1.0000
  H   H230      1.0  0.93140  0.37300  0.15834  1.0000
  H   H231      1.0  0.94698  0.62826  0.21957  1.0000
  H   H232      1.0  0.72361  0.62859  0.13300  1.0000
  H   H233      1.0  0.73703  0.57953  0.22919  1.0000
  H   H234      1.0  0.95971  0.57738  0.31125  1.0000
  C   C332      1.0  0.01683  0.53515  0.28518  1.0000
  C   C333      1.0  0.01539  0.51544  0.20424  1.0000
  C   C334      1.0  0.67023  0.47867  0.20296  1.0000
  C   C335      1.0  0.66238  0.46035  0.28335  1.0000
  N   N29       1.0  0.66613  0.46219  0.12256  1.0000
  C   C336      1.0  0.67387  0.47813  0.04357  1.0000
  C   C337      1.0  0.02186  0.51397  0.04518  1.0000
  N   N30       1.0  0.02428  0.53080  0.12497  1.0000
  C   C338      1.0  0.84879  0.66871  0.34112  1.0000
  C   C339      1.0  0.81054  0.67438  0.33017  1.0000
  H   H235      1.0  0.77587  0.64427  0.02822  1.0000
  H   H236      1.0  0.83914  0.63409  0.04586  1.0000
  C   C340      1.0  0.87585  0.67280  0.26943  1.0000
  H   H237      1.0  0.90364  0.66851  0.29408  1.0000
  H   H238      1.0  0.87412  0.36713  0.24225  1.0000
  H   H239      1.0  0.87051  0.65286  0.21715  1.0000
  C   C341      1.0  0.79219  0.68434  0.24629  1.0000
  H   H240      1.0  0.81108  0.68693  0.19081  1.0000
  H   H241      1.0  0.77800  0.37715  0.25442  1.0000
  H   H242      1.0  0.77221  0.66322  0.22970  1.0000
  C   C342      1.0  0.93964  0.35175  0.65804  1.0000
  C   C343      1.0  0.90839  0.34694  0.60526  1.0000
  C   C344      1.0  0.89150  0.64559  0.59995  1.0000
  C   C345      1.0  0.90766  0.61564  0.64447  1.0000
  C   C346      1.0  0.68970  0.63555  0.62962  1.0000
  C   C347      1.0  0.71667  0.63583  0.56357  1.0000
  C   C348      1.0  0.74009  0.33310  0.55644  1.0000
  C   C349      1.0  0.73033  0.36585  0.60060  1.0000
  C   C350      1.0  0.70245  0.36546  0.66478  1.0000
  H   H243      1.0  0.89657  0.36951  0.57662  1.0000
  H   H244      1.0  0.95078  0.37739  0.66130  1.0000
  H   H245      1.0  0.89533  0.59041  0.64384  1.0000
  H   H246      1.0  0.67642  0.61142  0.64103  1.0000
  H   H247      1.0  0.72412  0.61125  0.53598  1.0000
  H   H248      1.0  0.74789  0.38778  0.59996  1.0000
  C   C351      1.0  0.66578  0.47924  0.36430  1.0000
  C   C352      1.0  0.00796  0.51681  0.36475  1.0000
  H   H249      1.0  0.00746  0.53086  0.42335  1.0000
  H   H250      1.0  0.66027  0.46619  0.42267  1.0000
  C   C353      1.0  0.66607  0.45802  0.62763  1.0000
  H   H251      1.0  0.65291  0.43183  0.64128  1.0000
  H   H252      1.0  0.69144  0.45289  0.59143  1.0000
  H   H253      1.0  0.98082  0.47412  0.58647  1.0000
  C   C354      1.0  0.03460  0.53371  0.63242  1.0000
  H   H254      1.0  0.05361  0.51665  0.59476  1.0000
  H   H255      1.0  0.71576  0.55869  0.65084  1.0000
  H   H256      1.0  0.01121  0.54086  0.59084  1.0000
  C   C355      1.0  0.77773  0.65759  0.55759  1.0000
  C   C356      1.0  0.80130  0.66084  0.48395  1.0000
  C   C357      1.0  0.83952  0.65471  0.49469  1.0000
  C   C358      1.0  0.85388  0.64435  0.57818  1.0000
  C   C359      1.0  0.82965  0.63984  0.65017  1.0000
  C   C360      1.0  0.79223  0.64629  0.63997  1.0000
  N   N31       1.0  0.86134  0.65926  0.42275  1.0000
  N   N32       1.0  0.78873  0.67042  0.40253  1.0000
  C   C361      1.0  0.68324  0.90725  0.28054  1.0000
  C   C362      1.0  0.71168  0.92488  0.23361  1.0000
  C   C363      1.0  0.70286  0.95230  0.17186  1.0000
  C   C364      1.0  0.66631  0.96505  0.16020  1.0000
  C   C365      1.0  0.97340  0.95237  0.22243  1.0000
  C   C366      1.0  0.98128  0.92328  0.28007  1.0000
  C   C367      1.0  0.65633  0.66248  0.09605  1.0000
  C   C368      1.0  0.65530  0.69481  0.16030  1.0000
  C   C369      1.0  0.95593  0.71310  0.18589  1.0000
  C   C370      1.0  0.95643  0.74339  0.24332  1.0000
  C   C371      1.0  0.65653  0.75554  0.27982  1.0000
  C   C372      1.0  0.68855  0.73463  0.26581  1.0000
  C   C373      1.0  0.68780  0.70547  0.20555  1.0000
  C   C374      1.0  0.68356  0.66603  0.01978  1.0000
  C   C375      1.0  0.95434  0.98955  0.04382  1.0000
  C   C376      1.0  0.93861  0.95426  0.03140  1.0000
  H   H257      1.0  0.94939  0.93160  0.06141  1.0000
  H   H258      1.0  0.69873  0.72205  0.03440  1.0000
  H   H259      1.0  0.71226  0.69349  0.19010  1.0000
  H   H260      1.0  0.71364  0.74425  0.28575  1.0000
  H   H261      1.0  0.93329  0.75922  0.24864  1.0000
  H   H262      1.0  0.93140  0.70633  0.15834  1.0000
  H   H263      1.0  0.94698  0.96160  0.21957  1.0000
  H   H264      1.0  0.72361  0.96192  0.13300  1.0000
  H   H265      1.0  0.73703  0.91286  0.22919  1.0000
  H   H266      1.0  0.95971  0.91072  0.31125  1.0000
  C   C377      1.0  0.01683  0.86849  0.28518  1.0000
  C   C378      1.0  0.01539  0.84877  0.20424  1.0000
  C   C379      1.0  0.67023  0.81200  0.20296  1.0000
  C   C380      1.0  0.66238  0.79368  0.28335  1.0000
  N   N33       1.0  0.66613  0.79552  0.12256  1.0000
  C   C381      1.0  0.67387  0.81146  0.04357  1.0000
  C   C382      1.0  0.02186  0.84730  0.04518  1.0000
  N   N34       1.0  0.02428  0.86414  0.12497  1.0000
  C   C383      1.0  0.84879  0.00205  0.34112  1.0000
  C   C384      1.0  0.81054  0.00772  0.33017  1.0000
  H   H267      1.0  0.77587  0.97760  0.02822  1.0000
  H   H268      1.0  0.83914  0.96742  0.04586  1.0000
  C   C385      1.0  0.87585  0.00614  0.26943  1.0000
  H   H269      1.0  0.90364  0.00185  0.29408  1.0000
  H   H270      1.0  0.87412  0.70047  0.24225  1.0000
  H   H271      1.0  0.87051  0.98619  0.21715  1.0000
  C   C386      1.0  0.79218  0.01768  0.24629  1.0000
  H   H272      1.0  0.81108  0.02027  0.19081  1.0000
  H   H273      1.0  0.77800  0.71048  0.25442  1.0000
  H   H274      1.0  0.77221  0.99656  0.22970  1.0000
  C   C387      1.0  0.93964  0.68508  0.65804  1.0000
  C   C388      1.0  0.90839  0.68027  0.60526  1.0000
  C   C389      1.0  0.89150  0.97893  0.59995  1.0000
  C   C390      1.0  0.90766  0.94897  0.64447  1.0000
  C   C391      1.0  0.68970  0.96889  0.62962  1.0000
  C   C392      1.0  0.71667  0.96917  0.56357  1.0000
  C   C393      1.0  0.74009  0.66643  0.55644  1.0000
  C   C394      1.0  0.73033  0.69918  0.60060  1.0000
  C   C395      1.0  0.70245  0.69880  0.66478  1.0000
  H   H275      1.0  0.89657  0.70285  0.57662  1.0000
  H   H276      1.0  0.95078  0.71072  0.66130  1.0000
  H   H277      1.0  0.89533  0.92374  0.64384  1.0000
  H   H278      1.0  0.67642  0.94475  0.64103  1.0000
  H   H279      1.0  0.72412  0.94458  0.53598  1.0000
  H   H280      1.0  0.74790  0.72111  0.59996  1.0000
  C   C396      1.0  0.66578  0.81258  0.36430  1.0000
  C   C397      1.0  0.00796  0.85014  0.36475  1.0000
  H   H281      1.0  0.00746  0.86419  0.42335  1.0000
  H   H282      1.0  0.66027  0.79952  0.42267  1.0000
  C   C398      1.0  0.66607  0.79135  0.62763  1.0000
  H   H283      1.0  0.65291  0.76516  0.64128  1.0000
  H   H284      1.0  0.69144  0.78622  0.59143  1.0000
  H   H285      1.0  0.98082  0.80745  0.58647  1.0000
  C   C399      1.0  0.03460  0.86704  0.63242  1.0000
  H   H286      1.0  0.05361  0.84998  0.59476  1.0000
  H   H287      1.0  0.71576  0.89203  0.65084  1.0000
  H   H288      1.0  0.01121  0.87419  0.59084  1.0000
  C   C400      1.0  0.77773  0.99092  0.55759  1.0000
  C   C401      1.0  0.80130  0.99417  0.48395  1.0000
  C   C402      1.0  0.83952  0.98804  0.49469  1.0000
  C   C403      1.0  0.85388  0.97769  0.57818  1.0000
  C   C404      1.0  0.82965  0.97318  0.65017  1.0000
  C   C405      1.0  0.79223  0.97962  0.63997  1.0000
  N   N35       1.0  0.86134  0.99259  0.42275  1.0000
  N   N36       1.0  0.78873  0.00375  0.40253  1.0000
