data_image0
_chemical_formula_structural       C4HCH3C4HCH3C4HCH3C4HCH3C4HCH3C4HCH3C2H2C2H2C2H2C2H2C2H2C2H2C2H2C2H2C2H2C2H2C2H2C2H2C4HCH3C4HCH3C4HCH3C4HCH3C4HCH3C4HCH3C2H2C2H2C2H2C2H2C2H2C2H2C2H2C2H2C2H2C2H2C2H2C2H2C4HCH3C4HCH3C4HCH3C4HCH3C4HCH3C4HCH3C2H2C2H2C2H2C2H2C2H2C2H2C4HCH3C4HCH3C4HCH3C4HCH3C4HCH3C4HCH3CNCNCNCNCNCNCNCNCNCNCNCNCNCNCNCNCNCNCNCNCNCNCNCNCNCNCNCNCNCNCNCNCNCNCNCNCNCNCNCNCNCNCNCNCNCNCNCNCNCNCNCNCNCNCNCNCNCNCNCNCNCNCNCNCNCNCNCNCNCNCNCNCNCNCNCNCNCNCNCNCNCNCNCNCNCNCNCNCNCNCNCNCNCNCNCNCNCNCNCNCNCNCNCNCNCNCNCNC2H2C2H2C2H2C2H2C2H2C2H2C4HCH3C4HCH3C4HCH3C4HCH3C4HCH3C4HCH3C4HCH3C4HCH3C4HCH3C4HCH3C4HCH3C4HCH3C2H2C2H2C2H2C2H2C2H2C2H2C4HCH3C4HCH3C4HCH3C4HCH3C4HCH3C4HCH3C4HCH3C4HCH3C4HCH3C4HCH3C4HCH3C4HCH3C2H2C2H2C2H2C2H2C2H2C2H2C4HCH3C4HCH3C4HCH3C4HCH3C4HCH3C4HCH3C2H2C2H2C2H2C2H2C2H2C2H2
_chemical_formula_sum              "C486 H324 N108"
_cell_length_a       67.0777
_cell_length_b       67.0777
_cell_length_c       14.9027
_cell_angle_alpha    90
_cell_angle_beta     90
_cell_angle_gamma    120

_space_group_name_H-M_alt    "P 1"
_space_group_IT_number       1

loop_
  _space_group_symop_operation_xyz
  'x, y, z'

loop_
  _atom_site_type_symbol
  _atom_site_label
  _atom_site_symmetry_multiplicity
  _atom_site_fract_x
  _atom_site_fract_y
  _atom_site_fract_z
  _atom_site_occupancy
  C   C1        1.0  0.13276  0.36182  0.33157  1.0000
  C   C2        1.0  0.13441  0.35779  0.23949  1.0000
  C   C3        1.0  0.13682  0.33886  0.21132  1.0000
  C   C4        1.0  0.13412  0.32175  0.27476  1.0000
  H   H1        1.0  0.13777  0.37062  0.19439  1.0000
  C   C5        1.0  0.14240  0.33726  0.11581  1.0000
  H   H2        1.0  0.14265  0.35077  0.07410  1.0000
  H   H3        1.0  0.12952  0.32070  0.08806  1.0000
  H   H4        1.0  0.15930  0.33871  0.11100  1.0000
  C   C6        1.0  0.63732  0.77602  0.25354  1.0000
  C   C7        1.0  0.63816  0.79442  0.20416  1.0000
  C   C8        1.0  0.65880  0.81531  0.18998  1.0000
  C   C9        1.0  0.67930  0.81914  0.23427  1.0000
  H   H5        1.0  0.62316  0.79276  0.17906  1.0000
  C   C10       1.0  0.65751  0.83249  0.13037  1.0000
  H   H6        1.0  0.64921  0.82436  0.06708  1.0000
  H   H7        1.0  0.67446  0.84688  0.11362  1.0000
  H   H8        1.0  0.64744  0.83918  0.16272  1.0000
  C   C11       1.0  0.23374  0.87261  0.27925  1.0000
  C   C12       1.0  0.21848  0.85669  0.21559  1.0000
  C   C13       1.0  0.19664  0.85412  0.19748  1.0000
  C   C14       1.0  0.18906  0.86728  0.24751  1.0000
  H   H9        1.0  0.22274  0.84550  0.18604  1.0000
  C   C15       1.0  0.18263  0.83723  0.12645  1.0000
  H   H10       1.0  0.19294  0.84050  0.06579  1.0000
  H   H11       1.0  0.16753  0.83836  0.10742  1.0000
  H   H12       1.0  0.17701  0.81976  0.14958  1.0000
  C   C16       1.0  0.87751  0.64268  0.33871  1.0000
  C   C17       1.0  0.87899  0.64877  0.24710  1.0000
  C   C18       1.0  0.87698  0.66802  0.22000  1.0000
  C   C19       1.0  0.87711  0.68355  0.28568  1.0000
  H   H13       1.0  0.87749  0.63706  0.19956  1.0000
  C   C20       1.0  0.87423  0.67150  0.12311  1.0000
  H   H14       1.0  0.87543  0.65895  0.08017  1.0000
  H   H15       1.0  0.88767  0.68863  0.10253  1.0000
  H   H16       1.0  0.85746  0.66999  0.11148  1.0000
  C   C21       1.0  0.36445  0.23222  0.27990  1.0000
  C   C22       1.0  0.36513  0.21719  0.21508  1.0000
  C   C23       1.0  0.34590  0.19534  0.19664  1.0000
  C   C24       1.0  0.32516  0.18756  0.24687  1.0000
  H   H17       1.0  0.38056  0.22160  0.18499  1.0000
  C   C25       1.0  0.34879  0.18152  0.12482  1.0000
  H   H18       1.0  0.35565  0.19194  0.06431  1.0000
  H   H19       1.0  0.33260  0.16636  0.10587  1.0000
  H   H20       1.0  0.36079  0.17600  0.14708  1.0000
  C   C26       1.0  0.78000  0.14636  0.24270  1.0000
  C   C27       1.0  0.79965  0.16386  0.19850  1.0000
  C   C28       1.0  0.82042  0.16352  0.19171  1.0000
  C   C29       1.0  0.82254  0.14584  0.23646  1.0000
  H   H21       1.0  0.79908  0.17771  0.17225  1.0000
  C   C30       1.0  0.83932  0.18245  0.13910  1.0000
  H   H22       1.0  0.83291  0.18379  0.07330  1.0000
  H   H23       1.0  0.85372  0.17954  0.12740  1.0000
  H   H24       1.0  0.84565  0.19880  0.17432  1.0000
  C   C31       1.0  0.33443  0.11528  0.26576  1.0000
  C   C32       1.0  0.35438  0.11497  0.29334  1.0000
  H   H25       1.0  0.33095  0.11425  0.19844  1.0000
  H   H26       1.0  0.36500  0.11467  0.24465  1.0000
  C   C33       1.0  0.79058  0.66878  0.26255  1.0000
  C   C34       1.0  0.77062  0.64885  0.29249  1.0000
  H   H27       1.0  0.79230  0.67238  0.19525  1.0000
  H   H28       1.0  0.75891  0.63840  0.24550  1.0000
  C   C35       1.0  0.89711  0.22156  0.34415  1.0000
  C   C36       1.0  0.89530  0.24088  0.36881  1.0000
  H   H29       1.0  0.90534  0.22233  0.28523  1.0000
  H   H30       1.0  0.90223  0.25472  0.32630  1.0000
  C   C37       1.0  0.67478  0.89271  0.31074  1.0000
  C   C38       1.0  0.65418  0.89129  0.34040  1.0000
  H   H31       1.0  0.68011  0.89820  0.24643  1.0000
  H   H32       1.0  0.64516  0.89535  0.29571  1.0000
  C   C39       1.0  0.21872  0.33478  0.24957  1.0000
  C   C40       1.0  0.23924  0.35412  0.27953  1.0000
  H   H33       1.0  0.21630  0.33194  0.18187  1.0000
  H   H34       1.0  0.25040  0.36504  0.23211  1.0000
  C   C41       1.0  0.11614  0.78553  0.27029  1.0000
  C   C42       1.0  0.11619  0.76549  0.29820  1.0000
  H   H35       1.0  0.11440  0.78758  0.20313  1.0000
  H   H36       1.0  0.11534  0.75430  0.24958  1.0000
  C   C43       1.0  0.21440  0.44168  0.43157  1.0000
  C   C44       1.0  0.23570  0.44203  0.43306  1.0000
  H   H37       1.0  0.21284  0.45257  0.38770  1.0000
  H   H38       1.0  0.24847  0.45316  0.39083  1.0000
  C   C45       1.0  0.55910  0.77247  0.36644  1.0000
  C   C46       1.0  0.55975  0.79328  0.38828  1.0000
  H   H39       1.0  0.55019  0.76383  0.31015  1.0000
  H   H40       1.0  0.55144  0.79882  0.34625  1.0000
  C   C47       1.0  0.23390  0.79483  0.40551  1.0000
  C   C48       1.0  0.21312  0.77348  0.41300  1.0000
  H   H41       1.0  0.24568  0.79611  0.35878  1.0000
  H   H42       1.0  0.21087  0.76030  0.37180  1.0000
  C   C49       1.0  0.79657  0.56028  0.42464  1.0000
  C   C50       1.0  0.77501  0.55939  0.42785  1.0000
  H   H43       1.0  0.79870  0.55048  0.37708  1.0000
  H   H44       1.0  0.76262  0.54905  0.38273  1.0000
  C   C51       1.0  0.44228  0.23150  0.40608  1.0000
  C   C52       1.0  0.44272  0.21063  0.41307  1.0000
  H   H45       1.0  0.45289  0.24333  0.35976  1.0000
  H   H46       1.0  0.45385  0.20853  0.37254  1.0000
  C   C53       1.0  0.77805  0.22211  0.32530  1.0000
  C   C54       1.0  0.79867  0.24177  0.35239  1.0000
  H   H47       1.0  0.77165  0.22232  0.26307  1.0000
  H   H48       1.0  0.80647  0.25519  0.30816  1.0000
  C   C55       1.0  0.13506  0.43585  0.32684  1.0000
  C   C56       1.0  0.11510  0.42716  0.27244  1.0000
  C   C57       1.0  0.10190  0.43830  0.26406  1.0000
  C   C58       1.0  0.10879  0.45923  0.31183  1.0000
  H   H49       1.0  0.10944  0.41175  0.24040  1.0000
  C   C59       1.0  0.08127  0.42761  0.20462  1.0000
  H   H50       1.0  0.08040  0.41376  0.16323  1.0000
  H   H51       1.0  0.08157  0.44052  0.15919  1.0000
  H   H52       1.0  0.06564  0.42030  0.24506  1.0000
  C   C60       1.0  0.57665  0.69672  0.33707  1.0000
  C   C61       1.0  0.58654  0.68548  0.28982  1.0000
  C   C62       1.0  0.57601  0.66109  0.28532  1.0000
  C   C63       1.0  0.55452  0.64697  0.32981  1.0000
  H   H53       1.0  0.60168  0.69535  0.25626  1.0000
  C   C64       1.0  0.58744  0.65116  0.23003  1.0000
  H   H54       1.0  0.60203  0.66415  0.19158  1.0000
  H   H55       1.0  0.57520  0.63877  0.18215  1.0000
  H   H56       1.0  0.59392  0.64257  0.27339  1.0000
  C   C65       1.0  0.30909  0.87961  0.33173  1.0000
  C   C66       1.0  0.32097  0.90058  0.28353  1.0000
  C   C67       1.0  0.34538  0.91388  0.27976  1.0000
  C   C68       1.0  0.35890  0.90611  0.32606  1.0000
  H   H57       1.0  0.31158  0.90663  0.25142  1.0000
  C   C69       1.0  0.35594  0.93541  0.22530  1.0000
  H   H58       1.0  0.34338  0.93709  0.18419  1.0000
  H   H59       1.0  0.36884  0.93568  0.17988  1.0000
  H   H60       1.0  0.36404  0.95036  0.26942  1.0000
  C   C70       1.0  0.87853  0.57018  0.32650  1.0000
  C   C71       1.0  0.89940  0.58020  0.27726  1.0000
  C   C72       1.0  0.91349  0.56997  0.27086  1.0000
  C   C73       1.0  0.90665  0.54862  0.31535  1.0000
  H   H61       1.0  0.90501  0.59589  0.24770  1.0000
  C   C74       1.0  0.93502  0.58204  0.21677  1.0000
  H   H62       1.0  0.93601  0.59618  0.17698  1.0000
  H   H63       1.0  0.93600  0.57001  0.17017  1.0000
  H   H64       1.0  0.94997  0.58927  0.26101  1.0000
  C   C75       1.0  0.43372  0.30697  0.32811  1.0000
  C   C76       1.0  0.42492  0.31885  0.27810  1.0000
  C   C77       1.0  0.43603  0.34325  0.27425  1.0000
  C   C78       1.0  0.45702  0.35677  0.32239  1.0000
  H   H65       1.0  0.40965  0.30947  0.24480  1.0000
  C   C79       1.0  0.42537  0.35383  0.21805  1.0000
  H   H66       1.0  0.41146  0.34130  0.17563  1.0000
  H   H67       1.0  0.43828  0.36684  0.17377  1.0000
  H   H68       1.0  0.41815  0.36180  0.26098  1.0000
  C   C80       1.0  0.70022  0.12717  0.32389  1.0000
  C   C81       1.0  0.68893  0.10511  0.28365  1.0000
  C   C82       1.0  0.66453  0.09088  0.28266  1.0000
  C   C83       1.0  0.65044  0.09884  0.32356  1.0000
  H   H69       1.0  0.69876  0.09948  0.25212  1.0000
  C   C84       1.0  0.65457  0.06844  0.23457  1.0000
  H   H70       1.0  0.66749  0.06613  0.19884  1.0000
  H   H71       1.0  0.64198  0.06717  0.18510  1.0000
  H   H72       1.0  0.64621  0.05434  0.28251  1.0000
  C   C85       1.0  0.44232  0.09580  0.30584  1.0000
  C   C86       1.0  0.42961  0.10725  0.31012  1.0000
  H   H73       1.0  0.43439  0.07966  0.27827  1.0000
  H   H74       1.0  0.41305  0.09875  0.28666  1.0000
  C   C87       1.0  0.66095  0.53328  0.33625  1.0000
  C   C88       1.0  0.68524  0.54453  0.34099  1.0000
  H   H75       1.0  0.65251  0.51697  0.31033  1.0000
  H   H76       1.0  0.69349  0.53608  0.31925  1.0000
  C   C89       1.0  0.88768  0.34958  0.33164  1.0000
  C   C90       1.0  0.87440  0.32546  0.34058  1.0000
  H   H77       1.0  0.87961  0.35799  0.30733  1.0000
  H   H78       1.0  0.85734  0.31745  0.32361  1.0000
  C   C91       1.0  0.53678  0.88021  0.33871  1.0000
  C   C92       1.0  0.54846  0.86767  0.34660  1.0000
  H   H79       1.0  0.52077  0.87211  0.30997  1.0000
  H   H80       1.0  0.54053  0.85101  0.32441  1.0000
  C   C93       1.0  0.34860  0.43945  0.30811  1.0000
  C   C94       1.0  0.32440  0.42714  0.31213  1.0000
  H   H81       1.0  0.35656  0.43128  0.28034  1.0000
  H   H82       1.0  0.31609  0.41060  0.28846  1.0000
  C   C95       1.0  0.09836  0.65984  0.30133  1.0000
  C   C96       1.0  0.10992  0.68398  0.30670  1.0000
  H   H83       1.0  0.08227  0.65177  0.27323  1.0000
  H   H84       1.0  0.10154  0.69219  0.28359  1.0000
  C   C97       1.0  0.10526  0.23542  0.29456  1.0000
  C   C98       1.0  0.09145  0.21132  0.30062  1.0000
  H   H85       1.0  0.09722  0.24428  0.27535  1.0000
  H   H86       1.0  0.07432  0.20396  0.28550  1.0000
  C   C99       1.0  0.76883  0.87118  0.29245  1.0000
  C   C100      1.0  0.79301  0.88152  0.29194  1.0000
  H   H87       1.0  0.75965  0.85553  0.26155  1.0000
  H   H88       1.0  0.80026  0.87306  0.26094  1.0000
  C   C101      1.0  0.13390  0.90002  0.29602  1.0000
  C   C102      1.0  0.12355  0.91383  0.29822  1.0000
  H   H89       1.0  0.15007  0.90721  0.26910  1.0000
  H   H90       1.0  0.13257  0.93021  0.27320  1.0000
  C   C103      1.0  0.90265  0.76923  0.29344  1.0000
  C   C104      1.0  0.91574  0.79339  0.29773  1.0000
  H   H91       1.0  0.91117  0.76078  0.27505  1.0000
  H   H92       1.0  0.93289  0.80118  0.28233  1.0000
  C   C105      1.0  0.23737  0.13302  0.29693  1.0000
  C   C106      1.0  0.21323  0.12298  0.29960  1.0000
  H   H93       1.0  0.24652  0.14938  0.27193  1.0000
  H   H94       1.0  0.20608  0.13236  0.27649  1.0000
  C   C107      1.0  0.87286  0.10644  0.29455  1.0000
  C   C108      1.0  0.88303  0.09245  0.29203  1.0000
  H   H95       1.0  0.85784  0.10082  0.25968  1.0000
  H   H96       1.0  0.87511  0.07750  0.25572  1.0000
  C   C109      1.0  0.09849  0.56956  0.33889  1.0000
  C   C110      1.0  0.10431  0.56244  0.25871  1.0000
  C   C111      1.0  0.10549  0.54189  0.25507  1.0000
  C   C112      1.0  0.10134  0.52855  0.33459  1.0000
  H   H97       1.0  0.10522  0.57094  0.20037  1.0000
  C   C113      1.0  0.10897  0.53361  0.16698  1.0000
  H   H98       1.0  0.11246  0.54590  0.11285  1.0000
  H   H99       1.0  0.09362  0.51745  0.14885  1.0000
  H   H100      1.0  0.12359  0.53075  0.17143  1.0000
  C   C114      1.0  0.44036  0.52910  0.34918  1.0000
  C   C115      1.0  0.44839  0.54200  0.26909  1.0000
  C   C116      1.0  0.46985  0.56290  0.26558  1.0000
  C   C117      1.0  0.48347  0.57128  0.34485  1.0000
  H   H101      1.0  0.43963  0.53489  0.21071  1.0000
  C   C118      1.0  0.47867  0.57459  0.17774  1.0000
  H   H102      1.0  0.46619  0.56649  0.12358  1.0000
  H   H103      1.0  0.49424  0.57425  0.15933  1.0000
  H   H104      1.0  0.48273  0.59247  0.18271  1.0000
  C   C119      1.0  0.47562  0.90826  0.34406  1.0000
  C   C120      1.0  0.46368  0.90642  0.26356  1.0000
  C   C121      1.0  0.44325  0.90784  0.26248  1.0000
  C   C122      1.0  0.43453  0.91128  0.34470  1.0000
  H   H105      1.0  0.47128  0.90640  0.20394  1.0000
  C   C123      1.0  0.43261  0.90790  0.17487  1.0000
  H   H106      1.0  0.44096  0.90473  0.11817  1.0000
  H   H107      1.0  0.43371  0.92452  0.16421  1.0000
  H   H108      1.0  0.41453  0.89444  0.17480  1.0000
  C   C124      1.0  0.91572  0.43777  0.33760  1.0000
  C   C125      1.0  0.91272  0.44695  0.25665  1.0000
  C   C126      1.0  0.91278  0.46815  0.25447  1.0000
  C   C127      1.0  0.91588  0.48048  0.33599  1.0000
  H   H109      1.0  0.91285  0.43926  0.19740  1.0000
  C   C128      1.0  0.91175  0.47808  0.16641  1.0000
  H   H110      1.0  0.90898  0.46649  0.11039  1.0000
  H   H111      1.0  0.92782  0.49410  0.15428  1.0000
  H   H112      1.0  0.89757  0.48167  0.16681  1.0000
  C   C129      1.0  0.57137  0.47347  0.34826  1.0000
  C   C130      1.0  0.56180  0.46142  0.26744  1.0000
  C   C131      1.0  0.53981  0.44114  0.26491  1.0000
  C   C132      1.0  0.52694  0.43275  0.34585  1.0000
  H   H113      1.0  0.56998  0.46876  0.20831  1.0000
  C   C133      1.0  0.52973  0.43035  0.17680  1.0000
  H   H114      1.0  0.54168  0.43853  0.12114  1.0000
  H   H115      1.0  0.51436  0.43155  0.16336  1.0000
  H   H116      1.0  0.52499  0.41224  0.17808  1.0000
  C   C134      1.0  0.53260  0.09518  0.34525  1.0000
  C   C135      1.0  0.54501  0.09948  0.26416  1.0000
  C   C136      1.0  0.56605  0.09923  0.25991  1.0000
  C   C137      1.0  0.57511  0.09502  0.33960  1.0000
  H   H117      1.0  0.53740  0.10038  0.20587  1.0000
  C   C138      1.0  0.57715  0.10131  0.17127  1.0000
  H   H118      1.0  0.56860  0.10505  0.11693  1.0000
  H   H119      1.0  0.57684  0.08529  0.15494  1.0000
  H   H120      1.0  0.59502  0.11527  0.17371  1.0000
  C   C139      1.0  0.99623  0.42277  0.30257  1.0000
  C   C140      1.0  0.02043  0.43351  0.30183  1.0000
  H   H121      1.0  0.98711  0.40694  0.27285  1.0000
  H   H122      1.0  0.02796  0.42526  0.27137  1.0000
  C   C141      1.0  0.58845  0.56948  0.31388  1.0000
  C   C142      1.0  0.57787  0.58308  0.31301  1.0000
  H   H123      1.0  0.60427  0.57605  0.28420  1.0000
  H   H124      1.0  0.58625  0.59885  0.28258  1.0000
  C   C143      1.0  0.43567  0.01785  0.32316  1.0000
  C   C144      1.0  0.42222  0.99363  0.32161  1.0000
  H   H125      1.0  0.42958  0.02702  0.28956  1.0000
  H   H126      1.0  0.40699  0.98618  0.28712  1.0000
  C   C145      1.0  0.02002  0.58749  0.31365  1.0000
  C   C146      1.0  0.99577  0.57633  0.31166  1.0000
  H   H127      1.0  0.02903  0.60256  0.27865  1.0000
  H   H128      1.0  0.98809  0.58360  0.27533  1.0000
  C   C147      1.0  0.42065  0.43245  0.32144  1.0000
  C   C148      1.0  0.43173  0.41929  0.31901  1.0000
  H   H129      1.0  0.40559  0.42649  0.28643  1.0000
  H   H130      1.0  0.42440  0.40439  0.28239  1.0000
  C   C149      1.0  0.57174  0.98761  0.30876  1.0000
  C   C150      1.0  0.58566  0.01174  0.30866  1.0000
  H   H131      1.0  0.57839  0.97822  0.28094  1.0000
  H   H132      1.0  0.60170  0.01895  0.28057  1.0000
  C   C151      1.0  0.12651  0.10149  0.31291  1.0000
  C   C152      1.0  0.10330  0.09019  0.28414  1.0000
  C   C153      1.0  0.08959  0.10084  0.28369  1.0000
  C   C154      1.0  0.09932  0.12416  0.31354  1.0000
  H   H133      1.0  0.09611  0.07362  0.26191  1.0000
  C   C155      1.0  0.06550  0.08679  0.25040  1.0000
  H   H134      1.0  0.06165  0.07012  0.22312  1.0000
  H   H135      1.0  0.06233  0.09596  0.19687  1.0000
  H   H136      1.0  0.05356  0.08337  0.30564  1.0000
  C   C156      1.0  0.90331  0.02608  0.31086  1.0000
  C   C157      1.0  0.91460  0.01408  0.28323  1.0000
  C   C158      1.0  0.90375  0.98970  0.28186  1.0000
  C   C159      1.0  0.88023  0.97611  0.30981  1.0000
  H   H137      1.0  0.93132  0.02344  0.26262  1.0000
  C   C160      1.0  0.91792  0.97967  0.24969  1.0000
  H   H138      1.0  0.93481  0.99252  0.22430  1.0000
  H   H139      1.0  0.90907  0.96763  0.19496  1.0000
  H   H140      1.0  0.92088  0.97083  0.30501  1.0000
  C   C161      1.0  0.97889  0.87949  0.31344  1.0000
  C   C162      1.0  0.99094  0.90284  0.28669  1.0000
  C   C163      1.0  0.01531  0.91634  0.28595  1.0000
  C   C164      1.0  0.02880  0.90629  0.31380  1.0000
  H   H141      1.0  0.98165  0.91025  0.26589  1.0000
  C   C165      1.0  0.02544  0.94059  0.25430  1.0000
  H   H142      1.0  0.01266  0.94473  0.22892  1.0000
  H   H143      1.0  0.03753  0.94383  0.19969  1.0000
  H   H144      1.0  0.03426  0.95231  0.30987  1.0000
  C   C166      1.0  0.87959  0.90300  0.30924  1.0000
  C   C167      1.0  0.90287  0.91430  0.28159  1.0000
  C   C168      1.0  0.91640  0.90347  0.28061  1.0000
  C   C169      1.0  0.90644  0.87999  0.30900  1.0000
  H   H145      1.0  0.91023  0.93100  0.26069  1.0000
  C   C170      1.0  0.94058  0.91757  0.24829  1.0000
  H   H146      1.0  0.94457  0.93433  0.22169  1.0000
  H   H147      1.0  0.94384  0.90854  0.19444  1.0000
  H   H148      1.0  0.95238  0.92079  0.30388  1.0000
  C   C171      1.0  0.10212  0.97853  0.31428  1.0000
  C   C172      1.0  0.09095  0.99063  0.28649  1.0000
  C   C173      1.0  0.10196  0.01500  0.28494  1.0000
  C   C174      1.0  0.12549  0.02840  0.31294  1.0000
  H   H149      1.0  0.07423  0.98137  0.26577  1.0000
  C   C175      1.0  0.08797  0.02519  0.25244  1.0000
  H   H150      1.0  0.07108  0.01244  0.22675  1.0000
  H   H151      1.0  0.09695  0.03723  0.19784  1.0000
  H   H152      1.0  0.08503  0.03406  0.30768  1.0000
  C   C176      1.0  0.02678  0.12496  0.31614  1.0000
  C   C177      1.0  0.01461  0.10148  0.29115  1.0000
  C   C178      1.0  0.99022  0.08808  0.28959  1.0000
  C   C179      1.0  0.97671  0.09834  0.31480  1.0000
  H   H153      1.0  0.02387  0.09385  0.27237  1.0000
  C   C180      1.0  0.98010  0.06368  0.25993  1.0000
  H   H154      1.0  0.99291  0.05928  0.23729  1.0000
  H   H155      1.0  0.96839  0.06032  0.20380  1.0000
  H   H156      1.0  0.97088  0.05222  0.31571  1.0000
  C   C181      1.0  0.17252  0.41646  0.43326  1.0000
  N   N1        1.0  0.16521  0.43050  0.39794  1.0000
  C   C182      1.0  0.14548  0.42218  0.34785  1.0000
  N   N2        1.0  0.13429  0.39926  0.32673  1.0000
  C   C183      1.0  0.14058  0.38449  0.36141  1.0000
  N   N3        1.0  0.15963  0.39373  0.41342  1.0000
  C   C184      1.0  0.58158  0.75369  0.35916  1.0000
  N   N4        1.0  0.57432  0.73096  0.36813  1.0000
  C   C185      1.0  0.58660  0.72132  0.33502  1.0000
  N   N5        1.0  0.60775  0.73586  0.29759  1.0000
  C   C186      1.0  0.61567  0.75885  0.28675  1.0000
  N   N6        1.0  0.60223  0.76695  0.31963  1.0000
  C   C187      1.0  0.24990  0.83642  0.40195  1.0000
  N   N7        1.0  0.27292  0.84685  0.38519  1.0000
  C   C188      1.0  0.28446  0.86757  0.34125  1.0000
  N   N8        1.0  0.27174  0.87696  0.30963  1.0000
  C   C189      1.0  0.24868  0.86681  0.32366  1.0000
  N   N9        1.0  0.23843  0.84663  0.36863  1.0000
  C   C190      1.0  0.83830  0.58629  0.43015  1.0000
  N   N10       1.0  0.84673  0.57328  0.39414  1.0000
  C   C191      1.0  0.86690  0.58281  0.34632  1.0000
  N   N11       1.0  0.87738  0.60588  0.32817  1.0000
  C   C192      1.0  0.86979  0.61961  0.36318  1.0000
  N   N12       1.0  0.85049  0.60924  0.41369  1.0000
  C   C193      1.0  0.41676  0.24772  0.40192  1.0000
  N   N13       1.0  0.42976  0.27063  0.38323  1.0000
  C   C194      1.0  0.42087  0.28236  0.33869  1.0000
  N   N14       1.0  0.39867  0.26990  0.30801  1.0000
  C   C195      1.0  0.38528  0.24699  0.32414  1.0000
  N   N15       1.0  0.39497  0.23656  0.36959  1.0000
  C   C196      1.0  0.75619  0.18080  0.32726  1.0000
  N   N16       1.0  0.73387  0.16478  0.34181  1.0000
  C   C197      1.0  0.72468  0.14228  0.31674  1.0000
  N   N17       1.0  0.73955  0.13559  0.28340  1.0000
  C   C198      1.0  0.76233  0.15099  0.26851  1.0000
  N   N18       1.0  0.76976  0.17313  0.29274  1.0000
  C   C199      1.0  0.41900  0.16839  0.43704  1.0000
  N   N19       1.0  0.43296  0.16089  0.40244  1.0000
  C   C200      1.0  0.42442  0.13901  0.36916  1.0000
  N   N20       1.0  0.40101  0.12543  0.36354  1.0000
  C   C201      1.0  0.38639  0.13182  0.39890  1.0000
  N   N21       1.0  0.39610  0.15312  0.43481  1.0000
  C   C202      1.0  0.75669  0.58334  0.44768  1.0000
  N   N22       1.0  0.73473  0.56998  0.41601  1.0000
  C   C203      1.0  0.72269  0.57972  0.38066  1.0000
  N   N23       1.0  0.73395  0.60308  0.36923  1.0000
  C   C204      1.0  0.75564  0.61696  0.39992  1.0000
  N   N24       1.0  0.76600  0.60644  0.43943  1.0000
  C   C205      1.0  0.83536  0.25500  0.43081  1.0000
  N   N25       1.0  0.84743  0.27697  0.39861  1.0000
  C   C206      1.0  0.87086  0.28823  0.38982  1.0000
  N   N26       1.0  0.88163  0.27580  0.40468  1.0000
  C   C207      1.0  0.87046  0.25388  0.43635  1.0000
  N   N27       1.0  0.84752  0.24432  0.44945  1.0000
  C   C208      1.0  0.58444  0.83267  0.44473  1.0000
  N   N28       1.0  0.57246  0.84283  0.41391  1.0000
  C   C209      1.0  0.58322  0.86589  0.39541  1.0000
  N   N29       1.0  0.60670  0.87808  0.39910  1.0000
  C   C210      1.0  0.61934  0.86880  0.42953  1.0000
  N   N30       1.0  0.60759  0.84630  0.45244  1.0000
  C   C211      1.0  0.25366  0.41754  0.44522  1.0000
  N   N31       1.0  0.27514  0.43140  0.41062  1.0000
  C   C212      1.0  0.28761  0.42268  0.37052  1.0000
  N   N32       1.0  0.27676  0.39936  0.35758  1.0000
  C   C213      1.0  0.25557  0.38480  0.39192  1.0000
  N   N33       1.0  0.24500  0.39461  0.43537  1.0000
  C   C214      1.0  0.17096  0.75504  0.43781  1.0000
  N   N34       1.0  0.16351  0.73374  0.40171  1.0000
  C   C215      1.0  0.14163  0.72054  0.36832  1.0000
  N   N35       1.0  0.12798  0.73030  0.36447  1.0000
  C   C216      1.0  0.13438  0.75117  0.40106  1.0000
  N   N36       1.0  0.15567  0.76264  0.43710  1.0000
  C   C217      1.0  0.14334  0.30718  0.26056  1.0000
  N   N37       1.0  0.13177  0.28440  0.28230  1.0000
  C   C218      1.0  0.14238  0.27173  0.29536  1.0000
  N   N38       1.0  0.16584  0.28394  0.29597  1.0000
  C   C219      1.0  0.17851  0.30670  0.27571  1.0000
  N   N39       1.0  0.16668  0.31798  0.26230  1.0000
  C   C220      1.0  0.69630  0.84181  0.25999  1.0000
  N   N40       1.0  0.71899  0.85008  0.28116  1.0000
  C   C221      1.0  0.73273  0.87162  0.31761  1.0000
  N   N41       1.0  0.72200  0.88368  0.33860  1.0000
  C   C222      1.0  0.69987  0.87680  0.31817  1.0000
  N   N42       1.0  0.68764  0.85561  0.28217  1.0000
  C   C223      1.0  0.16528  0.85927  0.26093  1.0000
  N   N43       1.0  0.15575  0.87242  0.28438  1.0000
  C   C224      1.0  0.13318  0.86312  0.31035  1.0000
  N   N44       1.0  0.12104  0.83979  0.31886  1.0000
  C   C225      1.0  0.12929  0.82580  0.29514  1.0000
  N   N45       1.0  0.15155  0.83614  0.26921  1.0000
  C   C226      1.0  0.86677  0.69707  0.26976  1.0000
  N   N46       1.0  0.87776  0.72010  0.28720  1.0000
  C   C227      1.0  0.86641  0.73215  0.29855  1.0000
  N   N47       1.0  0.84299  0.71924  0.30140  1.0000
  C   C228      1.0  0.83102  0.69625  0.28527  1.0000
  N   N48       1.0  0.84345  0.68555  0.27401  1.0000
  C   C229      1.0  0.30932  0.16377  0.25910  1.0000
  N   N49       1.0  0.28668  0.15426  0.28288  1.0000
  C   C230      1.0  0.27336  0.13169  0.30864  1.0000
  N   N50       1.0  0.28459  0.11957  0.31715  1.0000
  C   C231      1.0  0.30686  0.12775  0.29336  1.0000
  N   N51       1.0  0.31871  0.15002  0.26723  1.0000
  C   C232      1.0  0.84436  0.15050  0.26944  1.0000
  N   N52       1.0  0.85215  0.13556  0.28812  1.0000
  C   C233      1.0  0.87294  0.14242  0.32998  1.0000
  N   N53       1.0  0.88465  0.16470  0.35870  1.0000
  C   C234      1.0  0.87804  0.18033  0.34164  1.0000
  N   N54       1.0  0.85765  0.17233  0.29974  1.0000
  C   C235      1.0  0.09294  0.50456  0.32969  1.0000
  N   N55       1.0  0.10567  0.49401  0.32052  1.0000
  C   C236      1.0  0.09541  0.47052  0.31561  1.0000
  N   N56       1.0  0.07192  0.45799  0.32166  1.0000
  C   C237      1.0  0.05864  0.46796  0.33116  1.0000
  N   N57       1.0  0.06982  0.49123  0.33451  1.0000
  C   C238      1.0  0.50768  0.58611  0.34078  1.0000
  N   N58       1.0  0.51896  0.60950  0.33428  1.0000
  C   C239      1.0  0.54253  0.62223  0.33122  1.0000
  N   N59       1.0  0.55439  0.61061  0.33616  1.0000
  C   C240      1.0  0.54375  0.58728  0.34301  1.0000
  N   N60       1.0  0.52043  0.57565  0.34505  1.0000
  C   C241      1.0  0.41974  0.92071  0.34593  1.0000
  N   N61       1.0  0.39649  0.90848  0.33470  1.0000
  C   C242      1.0  0.38356  0.91906  0.33231  1.0000
  N   N62       1.0  0.39485  0.94245  0.34174  1.0000
  C   C243      1.0  0.41806  0.95532  0.35297  1.0000
  N   N63       1.0  0.42998  0.94388  0.35445  1.0000
  C   C244      1.0  0.92419  0.50453  0.33570  1.0000
  N   N64       1.0  0.91109  0.51460  0.32396  1.0000
  C   C245      1.0  0.92069  0.53804  0.32123  1.0000
  N   N65       1.0  0.94406  0.55106  0.33120  1.0000
  C   C246      1.0  0.95777  0.54165  0.34321  1.0000
  N   N66       1.0  0.94722  0.51834  0.34482  1.0000
  C   C247      1.0  0.50270  0.41780  0.34510  1.0000
  N   N67       1.0  0.49198  0.39458  0.33297  1.0000
  C   C248      1.0  0.46849  0.38140  0.32940  1.0000
  N   N68       1.0  0.45609  0.39238  0.33889  1.0000
  C   C249      1.0  0.46612  0.41553  0.35118  1.0000
  N   N69       1.0  0.48947  0.42772  0.35380  1.0000
  C   C250      1.0  0.58977  0.08545  0.33573  1.0000
  N   N70       1.0  0.61314  0.09726  0.32912  1.0000
  C   C251      1.0  0.62566  0.08618  0.32621  1.0000
  N   N71       1.0  0.61372  0.06270  0.33091  1.0000
  C   C252      1.0  0.59035  0.05028  0.33770  1.0000
  N   N72       1.0  0.57903  0.06225  0.33973  1.0000
  C   C253      1.0  0.50866  0.08704  0.34352  1.0000
  N   N73       1.0  0.49895  0.10059  0.33897  1.0000
  C   C254      1.0  0.47563  0.09156  0.34234  1.0000
  N   N74       1.0  0.46237  0.06815  0.35091  1.0000
  C   C255      1.0  0.47134  0.05389  0.35668  1.0000
  N   N75       1.0  0.49456  0.06404  0.35215  1.0000
  C   C256      1.0  0.58696  0.49749  0.34495  1.0000
  N   N76       1.0  0.61037  0.50824  0.35258  1.0000
  C   C257      1.0  0.62358  0.53180  0.35585  1.0000
  N   N77       1.0  0.61209  0.54377  0.35239  1.0000
  C   C258      1.0  0.58885  0.53389  0.34743  1.0000
  N   N78       1.0  0.57690  0.51065  0.34342  1.0000
  C   C259      1.0  0.92507  0.42298  0.33463  1.0000
  N   N79       1.0  0.91290  0.39960  0.34258  1.0000
  C   C260      1.0  0.92366  0.38680  0.34567  1.0000
  N   N80       1.0  0.94709  0.39870  0.34191  1.0000
  C   C261      1.0  0.96004  0.42197  0.33638  1.0000
  N   N81       1.0  0.94834  0.43355  0.33256  1.0000
  C   C262      1.0  0.49968  0.91709  0.34099  1.0000
  N   N82       1.0  0.51065  0.90475  0.35200  1.0000
  C   C263      1.0  0.53420  0.91543  0.35562  1.0000
  N   N83       1.0  0.54594  0.93881  0.34927  1.0000
  C   C264      1.0  0.53583  0.95188  0.34093  1.0000
  N   N84       1.0  0.51258  0.94034  0.33674  1.0000
  C   C265      1.0  0.42430  0.50523  0.34576  1.0000
  N   N85       1.0  0.40104  0.49570  0.34147  1.0000
  C   C266      1.0  0.38653  0.47239  0.34419  1.0000
  N   N86       1.0  0.39649  0.45891  0.35204  1.0000
  C   C267      1.0  0.41971  0.46771  0.35778  1.0000
  N   N87       1.0  0.43295  0.49091  0.35380  1.0000
  C   C268      1.0  0.08974  0.58482  0.33628  1.0000
  N   N88       1.0  0.10311  0.60807  0.33238  1.0000
  C   C269      1.0  0.09392  0.62218  0.33604  1.0000
  N   N89       1.0  0.07048  0.61188  0.34404  1.0000
  C   C270      1.0  0.05637  0.58861  0.34913  1.0000
  N   N90       1.0  0.06670  0.57567  0.34471  1.0000
  C   C271      1.0  0.08696  0.13664  0.31665  1.0000
  N   N91       1.0  0.09826  0.16003  0.31953  1.0000
  C   C272      1.0  0.08760  0.17279  0.32201  1.0000
  N   N92       1.0  0.06409  0.16103  0.32084  1.0000
  C   C273      1.0  0.05151  0.13757  0.31826  1.0000
  N   N93       1.0  0.06360  0.12621  0.31648  1.0000
  C   C274      1.0  0.86756  0.95121  0.31265  1.0000
  N   N94       1.0  0.84415  0.93894  0.31890  1.0000
  C   C275      1.0  0.83167  0.91546  0.32143  1.0000
  N   N95       1.0  0.84350  0.90386  0.31762  1.0000
  C   C276      1.0  0.86689  0.91495  0.31208  1.0000
  N   N96       1.0  0.87808  0.93838  0.31011  1.0000
  C   C277      1.0  0.05366  0.91845  0.31691  1.0000
  N   N97       1.0  0.06579  0.90718  0.32213  1.0000
  C   C278      1.0  0.08924  0.91800  0.32486  1.0000
  N   N98       1.0  0.10096  0.94145  0.32188  1.0000
  C   C279      1.0  0.09001  0.95390  0.31718  1.0000
  N   N99       1.0  0.06658  0.94179  0.31516  1.0000
  C   C280      1.0  0.91865  0.86737  0.31225  1.0000
  N   N100      1.0  0.90744  0.84393  0.31519  1.0000
  C   C281      1.0  0.91835  0.83138  0.31801  1.0000
  N   N101      1.0  0.94184  0.84333  0.31747  1.0000
  C   C282      1.0  0.95423  0.86677  0.31494  1.0000
  N   N102      1.0  0.94200  0.87795  0.31270  1.0000
  C   C283      1.0  0.13830  0.05324  0.31570  1.0000
  N   N103      1.0  0.16169  0.06532  0.32110  1.0000
  C   C284      1.0  0.17442  0.08876  0.32394  1.0000
  N   N104      1.0  0.16272  0.10055  0.32076  1.0000
  C   C285      1.0  0.13929  0.08962  0.31572  1.0000
  N   N105      1.0  0.12795  0.06620  0.31381  1.0000
  C   C286      1.0  0.95177  0.08628  0.31699  1.0000
  N   N106      1.0  0.93960  0.09752  0.32391  1.0000
  C   C287      1.0  0.91611  0.08662  0.32558  1.0000
  N   N107      1.0  0.90436  0.06319  0.32052  1.0000
  C   C288      1.0  0.91533  0.05076  0.31440  1.0000
  N   N108      1.0  0.93877  0.06294  0.31314  1.0000
  C   C289      1.0  0.12948  0.32444  0.36526  1.0000
  C   C290      1.0  0.13029  0.34481  0.39360  1.0000
  H   H157      1.0  0.12941  0.31362  0.41399  1.0000
  H   H158      1.0  0.12998  0.34756  0.46107  1.0000
  C   C291      1.0  0.67930  0.79965  0.27167  1.0000
  C   C292      1.0  0.65860  0.77817  0.27953  1.0000
  H   H159      1.0  0.69347  0.80172  0.30567  1.0000
  H   H160      1.0  0.65867  0.76560  0.31827  1.0000
  C   C293      1.0  0.20533  0.88515  0.30339  1.0000
  C   C294      1.0  0.22700  0.88722  0.32114  1.0000
  H   H161      1.0  0.20021  0.89413  0.34370  1.0000
  H   H162      1.0  0.23661  0.89762  0.37295  1.0000
  C   C295      1.0  0.87859  0.67880  0.37721  1.0000
  C   C296      1.0  0.87759  0.65819  0.40304  1.0000
  H   H163      1.0  0.87703  0.68855  0.42666  1.0000
  H   H164      1.0  0.87591  0.65411  0.46988  1.0000
  C   C297      1.0  0.32361  0.20360  0.30434  1.0000
  C   C298      1.0  0.34320  0.22518  0.32301  1.0000
  H   H165      1.0  0.30955  0.19837  0.34497  1.0000
  H   H166      1.0  0.34245  0.23464  0.37548  1.0000
  C   C299      1.0  0.80198  0.12642  0.26754  1.0000
  C   C300      1.0  0.78084  0.12650  0.26904  1.0000
  H   H167      1.0  0.80287  0.11368  0.30195  1.0000
  H   H168      1.0  0.76730  0.11369  0.30352  1.0000
  C   C301      1.0  0.36255  0.12145  0.38194  1.0000
  C   C302      1.0  0.34818  0.12412  0.44450  1.0000
  C   C303      1.0  0.32705  0.12248  0.41964  1.0000
  C   C304      1.0  0.32052  0.11897  0.32741  1.0000
  H   H169      1.0  0.35417  0.12913  0.50855  1.0000
  C   C305      1.0  0.31419  0.12765  0.48878  1.0000
  H   H170      1.0  0.32166  0.13004  0.55578  1.0000
  H   H171      1.0  0.29657  0.11338  0.49262  1.0000
  H   H172      1.0  0.31399  0.14335  0.47134  1.0000
  C   C306      1.0  0.76988  0.64057  0.38028  1.0000
  C   C307      1.0  0.78766  0.65477  0.44060  1.0000
  C   C308      1.0  0.80683  0.67588  0.41385  1.0000
  C   C309      1.0  0.80888  0.68246  0.32182  1.0000
  H   H173      1.0  0.78722  0.64895  0.50457  1.0000
  C   C310      1.0  0.82512  0.68942  0.48126  1.0000
  H   H174      1.0  0.82046  0.68233  0.54896  1.0000
  H   H175      1.0  0.82821  0.70700  0.48358  1.0000
  H   H176      1.0  0.84107  0.68986  0.46329  1.0000
  C   C311      1.0  0.87947  0.23881  0.43588  1.0000
  C   C312      1.0  0.86903  0.21842  0.48789  1.0000
  C   C313      1.0  0.87204  0.19947  0.46831  1.0000
  C   C314      1.0  0.88531  0.20055  0.39190  1.0000
  H   H177      1.0  0.85772  0.21674  0.53753  1.0000
  C   C315      1.0  0.85942  0.17806  0.52286  1.0000
  H   H178      1.0  0.85131  0.18047  0.58217  1.0000
  H   H179      1.0  0.87144  0.17264  0.54575  1.0000
  H   H180      1.0  0.84595  0.16426  0.48295  1.0000
  C   C316      1.0  0.64338  0.87881  0.41916  1.0000
  C   C317      1.0  0.65584  0.87174  0.47465  1.0000
  C   C318      1.0  0.67760  0.87495  0.44981  1.0000
  C   C319      1.0  0.68670  0.88456  0.36396  1.0000
  H   H181      1.0  0.64819  0.86273  0.53205  1.0000
  C   C320      1.0  0.68891  0.86571  0.50963  1.0000
  H   H182      1.0  0.68017  0.85977  0.57413  1.0000
  H   H183      1.0  0.70655  0.87921  0.52328  1.0000
  H   H184      1.0  0.68919  0.85122  0.47767  1.0000
  C   C321      1.0  0.24115  0.36136  0.36969  1.0000
  C   C322      1.0  0.22383  0.34659  0.43063  1.0000
  C   C323      1.0  0.20398  0.32611  0.40309  1.0000
  C   C324      1.0  0.20092  0.32054  0.30984  1.0000
  H   H185      1.0  0.22499  0.35179  0.49604  1.0000
  C   C325      1.0  0.18588  0.31273  0.47143  1.0000
  H   H186      1.0  0.19105  0.31944  0.53941  1.0000
  H   H187      1.0  0.18216  0.29495  0.47182  1.0000
  H   H188      1.0  0.17015  0.31304  0.45583  1.0000
  C   C326      1.0  0.12372  0.76442  0.38562  1.0000
  C   C327      1.0  0.12694  0.78176  0.44765  1.0000
  C   C328      1.0  0.12506  0.80108  0.42262  1.0000
  C   C329      1.0  0.12058  0.80356  0.33092  1.0000
  H   H189      1.0  0.13258  0.78115  0.51097  1.0000
  C   C330      1.0  0.13095  0.81952  0.49064  1.0000
  H   H190      1.0  0.13401  0.81485  0.55736  1.0000
  H   H191      1.0  0.11675  0.82293  0.49648  1.0000
  H   H192      1.0  0.14648  0.83532  0.47069  1.0000
  C   C331      1.0  0.23736  0.42383  0.47359  1.0000
  C   C332      1.0  0.21865  0.40838  0.52803  1.0000
  C   C333      1.0  0.19745  0.40801  0.52883  1.0000
  C   C334      1.0  0.19440  0.42329  0.47137  1.0000
  H   H193      1.0  0.21977  0.39574  0.56249  1.0000
  C   C335      1.0  0.17895  0.39056  0.58755  1.0000
  H   H194      1.0  0.18543  0.39205  0.65590  1.0000
  H   H195      1.0  0.17346  0.37326  0.56268  1.0000
  H   H196      1.0  0.16397  0.39285  0.59120  1.0000
  C   C336      1.0  0.57630  0.80872  0.44984  1.0000
  C   C337      1.0  0.58862  0.80063  0.50098  1.0000
  C   C338      1.0  0.58727  0.77931  0.48331  1.0000
  C   C339      1.0  0.57322  0.76547  0.41123  1.0000
  H   H197      1.0  0.60037  0.81132  0.54753  1.0000
  C   C340      1.0  0.60274  0.77371  0.53596  1.0000
  H   H198      1.0  0.59980  0.77449  0.60762  1.0000
  H   H199      1.0  0.62069  0.78615  0.52081  1.0000
  H   H200      1.0  0.59980  0.75649  0.52186  1.0000
  C   C341      1.0  0.19394  0.77208  0.45858  1.0000
  C   C342      1.0  0.19789  0.79135  0.51100  1.0000
  C   C343      1.0  0.21841  0.81271  0.50465  1.0000
  C   C344      1.0  0.23603  0.81504  0.44499  1.0000
  H   H201      1.0  0.18471  0.79053  0.54867  1.0000
  C   C345      1.0  0.21999  0.83212  0.55892  1.0000
  H   H202      1.0  0.21671  0.82707  0.62940  1.0000
  H   H203      1.0  0.20718  0.83647  0.53580  1.0000
  H   H204      1.0  0.23694  0.84754  0.55524  1.0000
  C   C346      1.0  0.77277  0.57658  0.47412  1.0000
  C   C347      1.0  0.79108  0.59130  0.53172  1.0000
  C   C348      1.0  0.81255  0.59226  0.53040  1.0000
  C   C349      1.0  0.81618  0.57821  0.46832  1.0000
  H   H205      1.0  0.78952  0.60319  0.56972  1.0000
  C   C350      1.0  0.83069  0.60905  0.59206  1.0000
  H   H206      1.0  0.82406  0.60625  0.66061  1.0000
  H   H207      1.0  0.83570  0.62660  0.57201  1.0000
  H   H208      1.0  0.84600  0.60730  0.59299  1.0000
  C   C351      1.0  0.42480  0.19134  0.45766  1.0000
  C   C352      1.0  0.40931  0.19520  0.50924  1.0000
  C   C353      1.0  0.40852  0.21575  0.50313  1.0000
  C   C354      1.0  0.42396  0.23349  0.44413  1.0000
  H   H209      1.0  0.39687  0.18198  0.54652  1.0000
  C   C355      1.0  0.39065  0.21727  0.55730  1.0000
  H   H210      1.0  0.39229  0.21381  0.62768  1.0000
  H   H211      1.0  0.37351  0.20456  0.53364  1.0000
  H   H212      1.0  0.39225  0.23426  0.55427  1.0000
  C   C356      1.0  0.81122  0.24036  0.42590  1.0000
  C   C357      1.0  0.80028  0.22041  0.48040  1.0000
  C   C358      1.0  0.77875  0.20120  0.45807  1.0000
  C   C359      1.0  0.76795  0.20150  0.37609  1.0000
  H   H213      1.0  0.80901  0.21915  0.53462  1.0000
  C   C360      1.0  0.77029  0.18055  0.51687  1.0000
  H   H214      1.0  0.76978  0.18535  0.58649  1.0000
  H   H215      1.0  0.78189  0.17357  0.51217  1.0000
  H   H216      1.0  0.75299  0.16695  0.49960  1.0000
  C   C361      1.0  0.12955  0.46866  0.36167  1.0000
  C   C362      1.0  0.14230  0.45725  0.36927  1.0000
  H   H217      1.0  0.13499  0.48345  0.39801  1.0000
  H   H218      1.0  0.15630  0.46422  0.41094  1.0000
  C   C363      1.0  0.54466  0.65826  0.37689  1.0000
  C   C364      1.0  0.55541  0.68240  0.38057  1.0000
  H   H219      1.0  0.52943  0.64896  0.41068  1.0000
  H   H220      1.0  0.54726  0.68938  0.41558  1.0000
  C   C365      1.0  0.34703  0.88466  0.37109  1.0000
  C   C366      1.0  0.32281  0.87181  0.37416  1.0000
  H   H221      1.0  0.35596  0.87849  0.40601  1.0000
  H   H222      1.0  0.31531  0.85689  0.41062  1.0000
  C   C367      1.0  0.88507  0.53793  0.35992  1.0000
  C   C368      1.0  0.87143  0.54843  0.36559  1.0000
  H   H223      1.0  0.87955  0.52279  0.39386  1.0000
  H   H224      1.0  0.85677  0.54046  0.40354  1.0000
  C   C369      1.0  0.46638  0.34491  0.36897  1.0000
  C   C370      1.0  0.45501  0.32068  0.37204  1.0000
  H   H225      1.0  0.48125  0.35385  0.40528  1.0000
  H   H226      1.0  0.46217  0.31317  0.41003  1.0000
  C   C371      1.0  0.66187  0.12081  0.36469  1.0000
  C   C372      1.0  0.68598  0.13453  0.36501  1.0000
  H   H227      1.0  0.65269  0.12725  0.39602  1.0000
  H   H228      1.0  0.69297  0.15030  0.39528  1.0000
  C   C373      1.0  0.43878  0.12928  0.34969  1.0000
  C   C374      1.0  0.46176  0.13964  0.38083  1.0000
  C   C375      1.0  0.47494  0.12835  0.37748  1.0000
  C   C376      1.0  0.46495  0.10561  0.34091  1.0000
  H   H229      1.0  0.46872  0.15540  0.41124  1.0000
  C   C377      1.0  0.49835  0.14033  0.41840  1.0000
  H   H230      1.0  0.50271  0.15682  0.44891  1.0000
  H   H231      1.0  0.51126  0.14378  0.36700  1.0000
  H   H232      1.0  0.49951  0.12961  0.47092  1.0000
  C   C378      1.0  0.69816  0.56743  0.37175  1.0000
  C   C379      1.0  0.68565  0.57789  0.40285  1.0000
  C   C380      1.0  0.66129  0.56673  0.40168  1.0000
  C   C381      1.0  0.64834  0.54400  0.36478  1.0000
  H   H233      1.0  0.69460  0.59406  0.43004  1.0000
  C   C382      1.0  0.65062  0.57937  0.44387  1.0000
  H   H234      1.0  0.66295  0.59483  0.48010  1.0000
  H   H235      1.0  0.63755  0.56830  0.49236  1.0000
  H   H236      1.0  0.64282  0.58484  0.39238  1.0000
  C   C383      1.0  0.88421  0.31244  0.37229  1.0000
  C   C384      1.0  0.90780  0.32482  0.39580  1.0000
  C   C385      1.0  0.92141  0.34911  0.38945  1.0000
  C   C386      1.0  0.91135  0.36209  0.35545  1.0000
  H   H237      1.0  0.91517  0.31592  0.42191  1.0000
  C   C387      1.0  0.94554  0.35975  0.42367  1.0000
  H   H238      1.0  0.94939  0.34745  0.45601  1.0000
  H   H239      1.0  0.94864  0.37290  0.47355  1.0000
  H   H240      1.0  0.95764  0.36743  0.36823  1.0000
  C   C388      1.0  0.57097  0.87799  0.38196  1.0000
  C   C389      1.0  0.58068  0.90090  0.41322  1.0000
  C   C390      1.0  0.56908  0.91363  0.40860  1.0000
  C   C391      1.0  0.54673  0.90339  0.36800  1.0000
  H   H241      1.0  0.59654  0.90839  0.44322  1.0000
  C   C392      1.0  0.58078  0.93690  0.45133  1.0000
  H   H242      1.0  0.59586  0.94029  0.49097  1.0000
  H   H243      1.0  0.56894  0.93857  0.49676  1.0000
  H   H244      1.0  0.58666  0.95020  0.39982  1.0000
  C   C393      1.0  0.31184  0.43664  0.35179  1.0000
  C   C394      1.0  0.32489  0.45956  0.38340  1.0000
  C   C395      1.0  0.34937  0.47235  0.38013  1.0000
  C   C396      1.0  0.36180  0.46202  0.34329  1.0000
  H   H245      1.0  0.31635  0.46680  0.41379  1.0000
  C   C397      1.0  0.36116  0.49572  0.42142  1.0000
  H   H246      1.0  0.34924  0.50032  0.45232  1.0000
  H   H247      1.0  0.37073  0.50862  0.37016  1.0000
  H   H248      1.0  0.37297  0.49662  0.47373  1.0000
  C   C398      1.0  0.13186  0.69658  0.34719  1.0000
  C   C399      1.0  0.14208  0.68380  0.37789  1.0000
  C   C400      1.0  0.13069  0.65936  0.37342  1.0000
  C   C401      1.0  0.10802  0.64686  0.33597  1.0000
  H   H249      1.0  0.15777  0.69244  0.40893  1.0000
  C   C402      1.0  0.14252  0.64775  0.41421  1.0000
  H   H250      1.0  0.15892  0.65974  0.44572  1.0000
  H   H251      1.0  0.14613  0.63848  0.36252  1.0000
  H   H252      1.0  0.13163  0.63569  0.46594  1.0000
  C   C403      1.0  0.10106  0.19742  0.32218  1.0000
  C   C404      1.0  0.12492  0.20894  0.34107  1.0000
  C   C405      1.0  0.13920  0.23323  0.33609  1.0000
  C   C406      1.0  0.12940  0.24713  0.31041  1.0000
  H   H253      1.0  0.13224  0.19926  0.35841  1.0000
  C   C407      1.0  0.16402  0.24281  0.35837  1.0000
  H   H254      1.0  0.16810  0.22982  0.38178  1.0000
  H   H255      1.0  0.16898  0.25551  0.41183  1.0000
  H   H256      1.0  0.17457  0.25080  0.29907  1.0000
  C   C408      1.0  0.80713  0.90378  0.32744  1.0000
  C   C409      1.0  0.79597  0.91450  0.36844  1.0000
  C   C410      1.0  0.77165  0.90422  0.37192  1.0000
  C   C411      1.0  0.75738  0.88221  0.33008  1.0000
  H   H257      1.0  0.80596  0.93040  0.39671  1.0000
  C   C412      1.0  0.76265  0.91764  0.42009  1.0000
  H   H258      1.0  0.77595  0.93267  0.45562  1.0000
  H   H259      1.0  0.75005  0.90678  0.47035  1.0000
  H   H260      1.0  0.75472  0.92393  0.37244  1.0000
  C   C413      1.0  0.10074  0.90494  0.32864  1.0000
  C   C414      1.0  0.08931  0.88213  0.36128  1.0000
  C   C415      1.0  0.09947  0.86798  0.36111  1.0000
  C   C416      1.0  0.12222  0.87672  0.32508  1.0000
  H   H261      1.0  0.07293  0.87556  0.38570  1.0000
  C   C417      1.0  0.08531  0.84444  0.39981  1.0000
  H   H262      1.0  0.06946  0.84167  0.43180  1.0000
  H   H263      1.0  0.09516  0.84160  0.45121  1.0000
  H   H264      1.0  0.08026  0.83150  0.34715  1.0000
  C   C418      1.0  0.90546  0.80673  0.31857  1.0000
  C   C419      1.0  0.88163  0.79461  0.33798  1.0000
  C   C420      1.0  0.86808  0.77021  0.33508  1.0000
  C   C421      1.0  0.87857  0.75686  0.31060  1.0000
  H   H265      1.0  0.87385  0.80391  0.35466  1.0000
  C   C422      1.0  0.84323  0.75991  0.35864  1.0000
  H   H266      1.0  0.83860  0.77258  0.38104  1.0000
  H   H267      1.0  0.83890  0.74758  0.41324  1.0000
  H   H268      1.0  0.83259  0.75129  0.30018  1.0000
  C   C423      1.0  0.19902  0.10001  0.32777  1.0000
  C   C424      1.0  0.21020  0.08811  0.35772  1.0000
  C   C425      1.0  0.23449  0.09793  0.35689  1.0000
  C   C426      1.0  0.24876  0.12089  0.32336  1.0000
  H   H269      1.0  0.20024  0.07158  0.38042  1.0000
  C   C427      1.0  0.24357  0.08316  0.39194  1.0000
  H   H270      1.0  0.23032  0.06703  0.42156  1.0000
  H   H271      1.0  0.25620  0.09234  0.44437  1.0000
  H   H272      1.0  0.25146  0.07860  0.33768  1.0000
  C   C428      1.0  0.90454  0.09957  0.33285  1.0000
  C   C429      1.0  0.91460  0.12047  0.38099  1.0000
  C   C430      1.0  0.90434  0.13451  0.38695  1.0000
  C   C431      1.0  0.88320  0.12796  0.33993  1.0000
  H   H273      1.0  0.92991  0.12556  0.41307  1.0000
  C   C432      1.0  0.91676  0.15564  0.44351  1.0000
  H   H274      1.0  0.93098  0.15636  0.48195  1.0000
  H   H275      1.0  0.90493  0.15628  0.49210  1.0000
  H   H276      1.0  0.92407  0.17095  0.40120  1.0000
  C   C433      1.0  0.09715  0.53674  0.41589  1.0000
  C   C434      1.0  0.09554  0.55681  0.41791  1.0000
  H   H277      1.0  0.09259  0.52676  0.47259  1.0000
  H   H278      1.0  0.09014  0.56085  0.47591  1.0000
  C   C435      1.0  0.47464  0.55894  0.42588  1.0000
  C   C436      1.0  0.45351  0.53820  0.42798  1.0000
  H   H279      1.0  0.48465  0.56368  0.48249  1.0000
  H   H280      1.0  0.44898  0.52865  0.48578  1.0000
  C   C437      1.0  0.44600  0.91214  0.42552  1.0000
  C   C438      1.0  0.46616  0.91060  0.42532  1.0000
  H   H281      1.0  0.44104  0.91614  0.48471  1.0000
  H   H282      1.0  0.47530  0.91394  0.48387  1.0000
  C   C439      1.0  0.91783  0.47071  0.41732  1.0000
  C   C440      1.0  0.91775  0.44971  0.41814  1.0000
  H   H283      1.0  0.92164  0.47992  0.47585  1.0000
  H   H284      1.0  0.92177  0.44455  0.47681  1.0000
  C   C441      1.0  0.53697  0.44435  0.42714  1.0000
  C   C442      1.0  0.55878  0.46435  0.42834  1.0000
  H   H285      1.0  0.52753  0.43964  0.48523  1.0000
  H   H286      1.0  0.56422  0.47358  0.48683  1.0000
  C   C443      1.0  0.56328  0.09209  0.42152  1.0000
  C   C444      1.0  0.54233  0.09206  0.42422  1.0000
  H   H287      1.0  0.56848  0.08743  0.47855  1.0000
  H   H288      1.0  0.53312  0.08744  0.48285  1.0000
  C   C445      1.0  0.03412  0.45579  0.33764  1.0000
  C   C446      1.0  0.02256  0.46633  0.37769  1.0000
  C   C447      1.0  0.99827  0.45583  0.37997  1.0000
  C   C448      1.0  0.98465  0.43371  0.33948  1.0000
  H   H289      1.0  0.03214  0.48224  0.40632  1.0000
  C   C449      1.0  0.98826  0.46842  0.42739  1.0000
  H   H290      1.0  0.00110  0.48361  0.46356  1.0000
  H   H291      1.0  0.97556  0.45714  0.47661  1.0000
  H   H292      1.0  0.98006  0.47427  0.37911  1.0000
  C   C450      1.0  0.55561  0.57465  0.34879  1.0000
  C   C451      1.0  0.54488  0.55258  0.38894  1.0000
  C   C452      1.0  0.55525  0.53868  0.39159  1.0000
  C   C453      1.0  0.57735  0.54699  0.35100  1.0000
  H   H293      1.0  0.52899  0.54642  0.41756  1.0000
  C   C454      1.0  0.54257  0.51619  0.43969  1.0000
  H   H294      1.0  0.52753  0.51409  0.47628  1.0000
  H   H295      1.0  0.55387  0.51472  0.48864  1.0000
  H   H296      1.0  0.53647  0.50204  0.39178  1.0000
  C   C455      1.0  0.43022  0.97981  0.36117  1.0000
  C   C456      1.0  0.45158  0.99125  0.40664  1.0000
  C   C457      1.0  0.46526  0.01556  0.41024  1.0000
  C   C458      1.0  0.45761  0.02934  0.36485  1.0000
  H   H297      1.0  0.45743  0.98154  0.43783  1.0000
  C   C459      1.0  0.48697  0.02549  0.46371  1.0000
  H   H298      1.0  0.48804  0.01274  0.50588  1.0000
  H   H299      1.0  0.48810  0.03893  0.50827  1.0000
  H   H300      1.0  0.50182  0.03272  0.41893  1.0000
  C   C460      1.0  0.98223  0.55466  0.35273  1.0000
  C   C461      1.0  0.99397  0.54540  0.40056  1.0000
  C   C462      1.0  0.01830  0.55641  0.40452  1.0000
  C   C463      1.0  0.03181  0.57760  0.35731  1.0000
  H   H301      1.0  0.98448  0.52999  0.43296  1.0000
  C   C464      1.0  0.02855  0.54525  0.45992  1.0000
  H   H302      1.0  0.01595  0.53159  0.50307  1.0000
  H   H303      1.0  0.04192  0.55797  0.50366  1.0000
  H   H304      1.0  0.03596  0.53756  0.41648  1.0000
  C   C465      1.0  0.45339  0.42728  0.36009  1.0000
  C   C466      1.0  0.46273  0.44820  0.40834  1.0000
  C   C467      1.0  0.45175  0.46154  0.41305  1.0000
  C   C468      1.0  0.43057  0.45402  0.36581  1.0000
  H   H305      1.0  0.47813  0.45399  0.44077  1.0000
  C   C469      1.0  0.46292  0.48278  0.46939  1.0000
  H   H306      1.0  0.47642  0.48359  0.51283  1.0000
  H   H307      1.0  0.45017  0.48344  0.51291  1.0000
  H   H308      1.0  0.47082  0.49801  0.42660  1.0000
  C   C470      1.0  0.57729  0.02579  0.34260  1.0000
  C   C471      1.0  0.55483  0.01468  0.37950  1.0000
  C   C472      1.0  0.54057  0.99045  0.38115  1.0000
  C   C473      1.0  0.54896  0.97647  0.34311  1.0000
  H   H309      1.0  0.54864  0.02455  0.40660  1.0000
  C   C474      1.0  0.51765  0.98088  0.42570  1.0000
  H   H310      1.0  0.51530  0.99397  0.45984  1.0000
  H   H311      1.0  0.51562  0.96821  0.47620  1.0000
  H   H312      1.0  0.50396  0.97276  0.37593  1.0000
  C   C475      1.0  0.12282  0.13561  0.34030  1.0000
  C   C476      1.0  0.13608  0.12465  0.33994  1.0000
  H   H313      1.0  0.13069  0.15225  0.36269  1.0000
  H   H314      1.0  0.15276  0.13368  0.36187  1.0000
  C   C477      1.0  0.86884  0.98829  0.33562  1.0000
  C   C478      1.0  0.87998  0.01253  0.33599  1.0000
  H   H315      1.0  0.85207  0.97957  0.35653  1.0000
  H   H316      1.0  0.87092  0.02021  0.35711  1.0000
  C   C479      1.0  0.01657  0.88268  0.33893  1.0000
  C   C480      1.0  0.99234  0.86961  0.33852  1.0000
  H   H317      1.0  0.02523  0.87455  0.35969  1.0000
  H   H318      1.0  0.98459  0.85280  0.35888  1.0000
  C   C481      1.0  0.88288  0.86858  0.33478  1.0000
  C   C482      1.0  0.86979  0.87970  0.33477  1.0000
  H   H319      1.0  0.87485  0.85183  0.35604  1.0000
  H   H320      1.0  0.85304  0.87066  0.35588  1.0000
  C   C483      1.0  0.13675  0.01612  0.33898  1.0000
  C   C484      1.0  0.12545  0.99189  0.33948  1.0000
  H   H321      1.0  0.15353  0.02474  0.35992  1.0000
  H   H322      1.0  0.13440  0.98410  0.36055  1.0000
  C   C485      1.0  0.98906  0.12207  0.33828  1.0000
  C   C486      1.0  0.01333  0.13503  0.33871  1.0000
  H   H323      1.0  0.98045  0.13040  0.35702  1.0000
  H   H324      1.0  0.02112  0.15195  0.35761  1.0000
