data_image0
_chemical_formula_structural       C22H2C2H2NHC4H2C2H2NHC4H2C2H2NHC4H2C2H2NHC4H2C2H2NHC4H2C2H2NHC6H4NHC6H4NHC6H4NHC6H4NHC6H4NHC6H4NHC4H2C2H2NHC4H2C2H2NHC4H2C2H2NHC4H2C2H2NHC4H2C2H2NHC4H2C2H2NHNCNCNC3O3NCNCNC3O3NCNCNC3O3NCNCNC3O3NCNCNC3O3NCNCNC3O3CN2CNC2O3CN2CNC2O3CN2CNC2O3CN2CNC2O3CN2CNC2O3CN2CNC2O3C6H4NHC6H4NHC6H4NHC6H4NHC6H4NHC6H4NHC4H2C2H2NHC4H2C2H2NHC4H2C2H2NHC4H2C2H2NHC4H2C2H2NHC4H2C2H2NHC6H4NHC6H4NHC6H4NHC6H4NHC6H4NHC6H4NH
_chemical_formula_sum              "C288 H180 N72 O36"
_cell_length_a       79.0195
_cell_length_b       79.0196
_cell_length_c       15.0277
_cell_angle_alpha    90
_cell_angle_beta     90
_cell_angle_gamma    120

_space_group_name_H-M_alt    "P 1"
_space_group_IT_number       1

loop_
  _space_group_symop_operation_xyz
  'x, y, z'

loop_
  _atom_site_type_symbol
  _atom_site_label
  _atom_site_symmetry_multiplicity
  _atom_site_fract_x
  _atom_site_fract_y
  _atom_site_fract_z
  _atom_site_occupancy
  C   C1        1.0  0.10198  0.44647  0.27413  1.0000
  C   C2        1.0  0.56505  0.66888  0.27390  1.0000
  C   C3        1.0  0.34265  0.90956  0.27413  1.0000
  C   C4        1.0  0.90447  0.57012  0.27391  1.0000
  C   C5        1.0  0.44140  0.34772  0.27413  1.0000
  C   C6        1.0  0.66382  0.10707  0.27391  1.0000
  C   C7        1.0  0.47463  0.13303  0.38575  1.0000
  C   C8        1.0  0.44201  0.15348  0.37238  1.0000
  C   C9        1.0  0.65656  0.53690  0.38585  1.0000
  C   C10       1.0  0.70964  0.56952  0.37237  1.0000
  C   C11       1.0  0.87851  0.35497  0.38576  1.0000
  C   C12       1.0  0.85806  0.30190  0.37242  1.0000
  C   C13       1.0  0.53183  0.88357  0.38585  1.0000
  C   C14       1.0  0.56445  0.86312  0.37237  1.0000
  C   C15       1.0  0.34990  0.47970  0.38575  1.0000
  C   C16       1.0  0.29683  0.44707  0.37238  1.0000
  C   C17       1.0  0.12797  0.66163  0.38583  1.0000
  C   C18       1.0  0.14842  0.71471  0.37233  1.0000
  C   C19       1.0  0.18214  0.45407  0.28774  1.0000
  C   C20       1.0  0.21492  0.44909  0.32069  1.0000
  C   C21       1.0  0.21369  0.45810  0.24155  1.0000
  C   C22       1.0  0.19764  0.46075  0.22591  1.0000
  H   H1        1.0  0.22502  0.46389  0.19701  1.0000
  H   H2        1.0  0.19756  0.46809  0.16993  1.0000
  C   C23       1.0  0.25986  0.44478  0.29651  1.0000
  C   C24       1.0  0.24127  0.44238  0.27996  1.0000
  H   H3        1.0  0.26627  0.44074  0.24825  1.0000
  H   H4        1.0  0.23446  0.43622  0.22103  1.0000
  N   N1        1.0  0.16790  0.45890  0.27584  1.0000
  H   H5        1.0  0.17221  0.47196  0.25248  1.0000
  C   C25       1.0  0.55747  0.74145  0.28772  1.0000
  C   C26       1.0  0.56246  0.77921  0.32069  1.0000
  C   C27       1.0  0.55344  0.76897  0.24154  1.0000
  C   C28       1.0  0.55079  0.75027  0.22589  1.0000
  H   H6        1.0  0.54766  0.77451  0.19700  1.0000
  H   H7        1.0  0.54344  0.74284  0.16991  1.0000
  C   C29       1.0  0.56676  0.82846  0.29654  1.0000
  C   C30       1.0  0.56917  0.81227  0.27998  1.0000
  H   H8        1.0  0.57081  0.83891  0.24829  1.0000
  H   H9        1.0  0.57534  0.81163  0.22107  1.0000
  N   N2        1.0  0.55263  0.72238  0.27583  1.0000
  H   H10       1.0  0.53957  0.71363  0.25243  1.0000
  C   C31       1.0  0.27009  0.82940  0.28768  1.0000
  C   C32       1.0  0.23233  0.79662  0.32064  1.0000
  C   C33       1.0  0.24257  0.79785  0.24149  1.0000
  C   C34       1.0  0.26127  0.81391  0.22584  1.0000
  H   H11       1.0  0.23703  0.78653  0.19694  1.0000
  H   H12       1.0  0.26869  0.81399  0.16985  1.0000
  C   C35       1.0  0.18308  0.75168  0.29649  1.0000
  C   C36       1.0  0.19928  0.77028  0.27993  1.0000
  H   H13       1.0  0.17263  0.74527  0.24825  1.0000
  H   H14       1.0  0.19991  0.77708  0.22102  1.0000
  N   N3        1.0  0.28916  0.84364  0.27578  1.0000
  H   H15       1.0  0.29791  0.83933  0.25240  1.0000
  C   C37       1.0  0.82433  0.56254  0.28771  1.0000
  C   C38       1.0  0.79155  0.56753  0.32068  1.0000
  C   C39       1.0  0.79277  0.55851  0.24153  1.0000
  C   C40       1.0  0.80883  0.55586  0.22588  1.0000
  H   H16       1.0  0.78145  0.55273  0.19700  1.0000
  H   H17       1.0  0.80890  0.54851  0.16990  1.0000
  C   C41       1.0  0.74661  0.57183  0.29653  1.0000
  C   C42       1.0  0.76520  0.57424  0.27998  1.0000
  H   H18       1.0  0.74019  0.57588  0.24829  1.0000
  H   H19       1.0  0.77201  0.58041  0.22106  1.0000
  N   N4        1.0  0.83856  0.55770  0.27582  1.0000
  H   H20       1.0  0.83425  0.54464  0.25242  1.0000
  C   C43       1.0  0.44899  0.27516  0.28773  1.0000
  C   C44       1.0  0.44401  0.23740  0.32069  1.0000
  C   C45       1.0  0.45303  0.24764  0.24155  1.0000
  C   C46       1.0  0.45568  0.26635  0.22590  1.0000
  H   H21       1.0  0.45882  0.24210  0.19700  1.0000
  H   H22       1.0  0.46302  0.27377  0.16992  1.0000
  C   C47       1.0  0.43971  0.18816  0.29650  1.0000
  C   C48       1.0  0.43731  0.20435  0.27995  1.0000
  H   H23       1.0  0.43567  0.17770  0.24825  1.0000
  H   H24       1.0  0.43114  0.20499  0.22103  1.0000
  N   N5        1.0  0.45383  0.29423  0.27584  1.0000
  H   H25       1.0  0.46689  0.30298  0.25247  1.0000
  C   C49       1.0  0.73638  0.18722  0.28778  1.0000
  C   C50       1.0  0.77414  0.21999  0.32073  1.0000
  C   C51       1.0  0.76390  0.21877  0.24160  1.0000
  C   C52       1.0  0.74519  0.20272  0.22596  1.0000
  H   H26       1.0  0.76944  0.23010  0.19707  1.0000
  H   H27       1.0  0.73777  0.20264  0.16998  1.0000
  C   C53       1.0  0.82339  0.26493  0.29655  1.0000
  C   C54       1.0  0.80719  0.24634  0.28000  1.0000
  H   H28       1.0  0.83384  0.27135  0.24829  1.0000
  H   H29       1.0  0.80655  0.23953  0.22107  1.0000
  N   N6        1.0  0.71730  0.17298  0.27589  1.0000
  H   H30       1.0  0.70855  0.17730  0.25250  1.0000
  C   C55       1.0  0.13632  0.61324  0.30190  1.0000
  C   C56       1.0  0.13841  0.59694  0.28290  1.0000
  C   C57       1.0  0.13162  0.56364  0.32028  1.0000
  C   C58       1.0  0.12286  0.55381  0.23996  1.0000
  C   C59       1.0  0.12045  0.53527  0.22182  1.0000
  C   C60       1.0  0.12715  0.52619  0.28211  1.0000
  H   H31       1.0  0.11713  0.55954  0.19618  1.0000
  H   H32       1.0  0.11329  0.52816  0.16496  1.0000
  H   H33       1.0  0.14040  0.62388  0.25456  1.0000
  H   H34       1.0  0.14442  0.59645  0.22325  1.0000
  N   N7        1.0  0.12254  0.50722  0.26775  1.0000
  H   H35       1.0  0.10951  0.49847  0.24418  1.0000
  C   C61       1.0  0.39829  0.53646  0.30184  1.0000
  C   C62       1.0  0.41458  0.55485  0.28283  1.0000
  C   C63       1.0  0.44788  0.58135  0.32018  1.0000
  C   C64       1.0  0.45771  0.58243  0.23983  1.0000
  C   C65       1.0  0.47624  0.59855  0.22167  1.0000
  C   C66       1.0  0.48533  0.61433  0.28199  1.0000
  H   H36       1.0  0.45197  0.57097  0.19602  1.0000
  H   H37       1.0  0.48335  0.59851  0.16478  1.0000
  H   H38       1.0  0.38763  0.52990  0.25452  1.0000
  H   H39       1.0  0.41506  0.56135  0.22321  1.0000
  N   N8        1.0  0.50430  0.62870  0.26761  1.0000
  H   H40       1.0  0.51305  0.62441  0.24398  1.0000
  C   C67       1.0  0.47508  0.87521  0.30191  1.0000
  C   C68       1.0  0.45669  0.87312  0.28290  1.0000
  C   C69       1.0  0.43018  0.87991  0.32028  1.0000
  C   C70       1.0  0.42911  0.88867  0.23996  1.0000
  C   C71       1.0  0.41298  0.89109  0.22182  1.0000
  C   C72       1.0  0.39720  0.88438  0.28211  1.0000
  H   H41       1.0  0.44057  0.89440  0.19618  1.0000
  H   H42       1.0  0.41303  0.89824  0.16495  1.0000
  H   H43       1.0  0.48164  0.87113  0.25458  1.0000
  H   H44       1.0  0.45019  0.86711  0.22326  1.0000
  N   N9        1.0  0.38283  0.88899  0.26775  1.0000
  H   H45       1.0  0.38713  0.90203  0.24417  1.0000
  C   C73       1.0  0.87013  0.40335  0.30184  1.0000
  C   C74       1.0  0.86803  0.41965  0.28284  1.0000
  C   C75       1.0  0.87483  0.45295  0.32019  1.0000
  C   C76       1.0  0.88358  0.46278  0.23984  1.0000
  C   C77       1.0  0.88599  0.48132  0.22168  1.0000
  C   C78       1.0  0.87930  0.49040  0.28199  1.0000
  H   H46       1.0  0.88930  0.45704  0.19603  1.0000
  H   H47       1.0  0.89314  0.48842  0.16478  1.0000
  H   H48       1.0  0.86604  0.39270  0.25454  1.0000
  H   H49       1.0  0.86201  0.42013  0.22322  1.0000
  N   N10       1.0  0.88391  0.50937  0.26761  1.0000
  H   H50       1.0  0.89694  0.51812  0.24398  1.0000
  C   C79       1.0  0.60817  0.48015  0.30191  1.0000
  C   C80       1.0  0.59187  0.46176  0.28290  1.0000
  C   C81       1.0  0.55858  0.43526  0.32029  1.0000
  C   C82       1.0  0.54874  0.43418  0.23997  1.0000
  C   C83       1.0  0.53020  0.41806  0.22182  1.0000
  C   C84       1.0  0.52112  0.40227  0.28211  1.0000
  H   H51       1.0  0.55447  0.44565  0.19618  1.0000
  H   H52       1.0  0.52309  0.41810  0.16496  1.0000
  H   H53       1.0  0.61881  0.48671  0.25458  1.0000
  H   H54       1.0  0.59138  0.45526  0.22326  1.0000
  N   N11       1.0  0.50215  0.38791  0.26776  1.0000
  H   H55       1.0  0.49340  0.39220  0.24418  1.0000
  C   C85       1.0  0.53139  0.14140  0.30184  1.0000
  C   C86       1.0  0.54978  0.14350  0.28284  1.0000
  C   C87       1.0  0.57627  0.13670  0.32019  1.0000
  C   C88       1.0  0.57736  0.12795  0.23984  1.0000
  C   C89       1.0  0.59348  0.12554  0.22168  1.0000
  C   C90       1.0  0.60926  0.13223  0.28199  1.0000
  H   H56       1.0  0.56590  0.12223  0.19603  1.0000
  H   H57       1.0  0.59344  0.11839  0.16479  1.0000
  H   H58       1.0  0.52482  0.14549  0.25452  1.0000
  H   H59       1.0  0.55628  0.14952  0.22321  1.0000
  N   N12       1.0  0.62363  0.12763  0.26761  1.0000
  H   H60       1.0  0.61934  0.11459  0.24399  1.0000
  C   C91       1.0  0.05443  0.40061  0.29630  1.0000
  C   C92       1.0  0.01346  0.37591  0.32291  1.0000
  C   C93       1.0  0.02076  0.38664  0.24304  1.0000
  C   C94       1.0  0.04096  0.39879  0.22989  1.0000
  H   H61       1.0  0.01142  0.38651  0.19546  1.0000
  H   H62       1.0  0.04578  0.40676  0.17246  1.0000
  C   C95       1.0  0.95922  0.34501  0.28979  1.0000
  C   C96       1.0  0.97944  0.35319  0.27621  1.0000
  H   H63       1.0  0.94978  0.33656  0.24074  1.0000
  H   H64       1.0  0.98418  0.35022  0.21802  1.0000
  N   N13       1.0  0.07403  0.41347  0.28758  1.0000
  H   H65       1.0  0.08282  0.40890  0.30737  1.0000
  C   C97       1.0  0.61090  0.66717  0.29631  1.0000
  C   C98       1.0  0.63560  0.65090  0.32292  1.0000
  C   C99       1.0  0.62487  0.64746  0.24308  1.0000
  C   C100      1.0  0.61272  0.65551  0.22993  1.0000
  H   H66       1.0  0.62500  0.63825  0.19551  1.0000
  H   H67       1.0  0.60474  0.65234  0.17251  1.0000
  C   C101      1.0  0.66651  0.62756  0.28980  1.0000
  C   C102      1.0  0.65833  0.63960  0.27622  1.0000
  H   H68       1.0  0.67496  0.62658  0.24076  1.0000
  H   H69       1.0  0.66130  0.64732  0.21804  1.0000
  N   N14       1.0  0.59804  0.67390  0.28764  1.0000
  H   H70       1.0  0.60259  0.68726  0.30739  1.0000
  C   C103      1.0  0.34435  0.95711  0.29632  1.0000
  C   C104      1.0  0.36062  0.99808  0.32293  1.0000
  C   C105      1.0  0.36405  0.99078  0.24307  1.0000
  C   C106      1.0  0.35600  0.97058  0.22992  1.0000
  H   H71       1.0  0.37325  0.00012  0.19549  1.0000
  H   H72       1.0  0.35916  0.96577  0.17249  1.0000
  C   C107      1.0  0.38395  0.05232  0.28979  1.0000
  C   C108      1.0  0.37192  0.03210  0.27622  1.0000
  H   H73       1.0  0.38494  0.06176  0.24074  1.0000
  H   H74       1.0  0.36420  0.02736  0.21802  1.0000
  N   N15       1.0  0.33761  0.93752  0.28760  1.0000
  H   H75       1.0  0.32425  0.92872  0.30737  1.0000
  C   C109      1.0  0.95204  0.61597  0.29633  1.0000
  C   C110      1.0  0.99301  0.64068  0.32292  1.0000
  C   C111      1.0  0.98571  0.62994  0.24308  1.0000
  C   C112      1.0  0.96551  0.61779  0.22994  1.0000
  H   H76       1.0  0.99505  0.63007  0.19551  1.0000
  H   H77       1.0  0.96070  0.60980  0.17252  1.0000
  C   C113      1.0  0.04725  0.67158  0.28980  1.0000
  C   C114      1.0  0.02703  0.66340  0.27622  1.0000
  H   H78       1.0  0.05669  0.68004  0.24075  1.0000
  H   H79       1.0  0.02229  0.66637  0.21803  1.0000
  N   N16       1.0  0.93244  0.60311  0.28764  1.0000
  H   H80       1.0  0.92364  0.60766  0.30740  1.0000
  C   C115      1.0  0.39554  0.34941  0.29631  1.0000
  C   C116      1.0  0.37084  0.36569  0.32292  1.0000
  C   C117      1.0  0.38157  0.36912  0.24306  1.0000
  C   C118      1.0  0.39372  0.36106  0.22990  1.0000
  H   H81       1.0  0.38144  0.37832  0.19547  1.0000
  H   H82       1.0  0.40169  0.36422  0.17247  1.0000
  C   C119      1.0  0.33994  0.38903  0.28979  1.0000
  C   C120      1.0  0.34812  0.37699  0.27621  1.0000
  H   H83       1.0  0.33149  0.39001  0.24073  1.0000
  H   H84       1.0  0.34514  0.36927  0.21802  1.0000
  N   N17       1.0  0.40840  0.34268  0.28760  1.0000
  H   H85       1.0  0.40383  0.32932  0.30737  1.0000
  C   C121      1.0  0.66210  0.05950  0.29631  1.0000
  C   C122      1.0  0.64583  0.01853  0.32291  1.0000
  C   C123      1.0  0.64240  0.02583  0.24306  1.0000
  C   C124      1.0  0.65044  0.04603  0.22992  1.0000
  H   H86       1.0  0.63319  0.01649  0.19549  1.0000
  H   H87       1.0  0.64728  0.05084  0.17249  1.0000
  C   C125      1.0  0.62249  0.96429  0.28980  1.0000
  C   C126      1.0  0.63453  0.98451  0.27622  1.0000
  H   H88       1.0  0.62151  0.95485  0.24075  1.0000
  H   H89       1.0  0.64225  0.98925  0.21803  1.0000
  N   N18       1.0  0.66884  0.07910  0.28763  1.0000
  H   H90       1.0  0.68219  0.08790  0.30739  1.0000
  N   N19       1.0  0.10857  0.46599  0.27340  1.0000
  C   C127      1.0  0.12791  0.47946  0.27734  1.0000
  N   N20       1.0  0.14080  0.47287  0.28266  1.0000
  C   C128      1.0  0.13484  0.45348  0.28275  1.0000
  N   N21       1.0  0.11537  0.44051  0.27941  1.0000
  C   C129      1.0  0.13452  0.49971  0.28238  1.0000
  C   C130      1.0  0.14843  0.44689  0.29023  1.0000
  C   C131      1.0  0.08169  0.43296  0.27187  1.0000
  O   O1        1.0  0.14135  0.42769  0.30777  1.0000
  O   O2        1.0  0.06968  0.44045  0.26118  1.0000
  O   O3        1.0  0.15362  0.51184  0.30173  1.0000
  N   N22       1.0  0.54553  0.65595  0.27318  1.0000
  C   C132      1.0  0.53206  0.66183  0.27720  1.0000
  N   N23       1.0  0.53865  0.68130  0.28258  1.0000
  C   C133      1.0  0.55804  0.69473  0.28265  1.0000
  N   N24       1.0  0.57101  0.68823  0.27923  1.0000
  C   C134      1.0  0.51181  0.64818  0.28227  1.0000
  C   C135      1.0  0.56464  0.71491  0.29016  1.0000
  C   C136      1.0  0.57856  0.66210  0.27156  1.0000
  O   O4        1.0  0.58384  0.72704  0.30769  1.0000
  O   O5        1.0  0.57106  0.64260  0.26104  1.0000
  O   O6        1.0  0.49968  0.65516  0.30167  1.0000
  N   N25       1.0  0.35559  0.90297  0.27339  1.0000
  C   C137      1.0  0.34971  0.88362  0.27733  1.0000
  N   N26       1.0  0.33024  0.87074  0.28263  1.0000
  C   C138      1.0  0.31680  0.87670  0.28272  1.0000
  N   N27       1.0  0.32330  0.89617  0.27939  1.0000
  C   C139      1.0  0.36336  0.87702  0.28237  1.0000
  C   C140      1.0  0.29662  0.86311  0.29018  1.0000
  C   C141      1.0  0.34943  0.92984  0.27189  1.0000
  O   O7        1.0  0.28450  0.87019  0.30773  1.0000
  O   O8        1.0  0.36893  0.94185  0.26121  1.0000
  O   O9        1.0  0.35638  0.85791  0.30171  1.0000
  N   N28       1.0  0.89789  0.55060  0.27318  1.0000
  C   C142      1.0  0.87854  0.53713  0.27720  1.0000
  N   N29       1.0  0.86566  0.54373  0.28257  1.0000
  C   C143      1.0  0.87161  0.56311  0.28264  1.0000
  N   N30       1.0  0.89109  0.57609  0.27923  1.0000
  C   C144      1.0  0.87194  0.51688  0.28227  1.0000
  C   C145      1.0  0.85803  0.56971  0.29016  1.0000
  C   C146      1.0  0.92476  0.58363  0.27157  1.0000
  O   O10       1.0  0.86511  0.58891  0.30769  1.0000
  O   O11       1.0  0.93676  0.57613  0.26105  1.0000
  O   O12       1.0  0.85283  0.50475  0.30167  1.0000
  N   N31       1.0  0.46092  0.36066  0.27340  1.0000
  C   C147      1.0  0.47439  0.35478  0.27734  1.0000
  N   N32       1.0  0.46780  0.33531  0.28266  1.0000
  C   C148      1.0  0.44841  0.32187  0.28274  1.0000
  N   N33       1.0  0.43544  0.32837  0.27941  1.0000
  C   C149      1.0  0.49464  0.36843  0.28238  1.0000
  C   C150      1.0  0.44182  0.30169  0.29022  1.0000
  C   C151      1.0  0.42789  0.35450  0.27188  1.0000
  O   O13       1.0  0.42262  0.28957  0.30776  1.0000
  O   O14       1.0  0.43538  0.37400  0.26120  1.0000
  O   O15       1.0  0.50677  0.36145  0.30172  1.0000
  N   N34       1.0  0.65088  0.11365  0.27318  1.0000
  C   C152      1.0  0.65676  0.13300  0.27721  1.0000
  N   N35       1.0  0.67623  0.14588  0.28260  1.0000
  C   C153      1.0  0.68966  0.13993  0.28268  1.0000
  N   N36       1.0  0.68316  0.12045  0.27925  1.0000
  C   C154      1.0  0.64311  0.13960  0.28228  1.0000
  C   C155      1.0  0.70984  0.15351  0.29020  1.0000
  C   C156      1.0  0.65704  0.08678  0.27155  1.0000
  O   O16       1.0  0.72197  0.14643  0.30771  1.0000
  O   O17       1.0  0.63753  0.07478  0.26102  1.0000
  O   O18       1.0  0.65008  0.15870  0.30169  1.0000
  C   C157      1.0  0.44165  0.10707  0.38870  1.0000
  N   N37       1.0  0.46118  0.11368  0.38962  1.0000
  N   N38       1.0  0.46802  0.14590  0.38029  1.0000
  C   C158      1.0  0.44862  0.13992  0.38002  1.0000
  N   N39       1.0  0.43567  0.12044  0.38330  1.0000
  C   C159      1.0  0.49489  0.13966  0.38086  1.0000
  C   C160      1.0  0.42817  0.08678  0.39080  1.0000
  O   O19       1.0  0.42281  0.14638  0.35469  1.0000
  O   O20       1.0  0.43568  0.07478  0.40095  1.0000
  O   O21       1.0  0.50700  0.15876  0.36135  1.0000
  C   C161      1.0  0.66358  0.56988  0.38892  1.0000
  N   N40       1.0  0.65066  0.55035  0.38981  1.0000
  N   N41       1.0  0.67604  0.54351  0.38032  1.0000
  C   C162      1.0  0.68945  0.56290  0.38007  1.0000
  N   N42       1.0  0.68293  0.57586  0.38345  1.0000
  C   C163      1.0  0.64293  0.51664  0.38094  1.0000
  C   C164      1.0  0.65677  0.58336  0.39113  1.0000
  O   O22       1.0  0.72173  0.58873  0.35480  1.0000
  O   O23       1.0  0.63725  0.57583  0.40112  1.0000
  O   O24       1.0  0.64991  0.50452  0.36135  1.0000
  C   C165      1.0  0.90447  0.34796  0.38870  1.0000
  N   N43       1.0  0.89786  0.36088  0.38962  1.0000
  N   N44       1.0  0.86565  0.33550  0.38032  1.0000
  C   C166      1.0  0.87162  0.32208  0.38005  1.0000
  N   N45       1.0  0.89110  0.32861  0.38331  1.0000
  C   C167      1.0  0.87188  0.36861  0.38088  1.0000
  C   C168      1.0  0.92476  0.35478  0.39079  1.0000
  O   O25       1.0  0.86517  0.28980  0.35473  1.0000
  O   O26       1.0  0.93676  0.37429  0.40093  1.0000
  O   O27       1.0  0.85278  0.36162  0.36137  1.0000
  C   C169      1.0  0.56480  0.90953  0.38891  1.0000
  N   N46       1.0  0.54528  0.90292  0.38981  1.0000
  N   N47       1.0  0.53844  0.87071  0.38032  1.0000
  C   C170      1.0  0.55783  0.87668  0.38006  1.0000
  N   N48       1.0  0.57079  0.89616  0.38344  1.0000
  C   C171      1.0  0.51157  0.87695  0.38094  1.0000
  C   C172      1.0  0.57829  0.92983  0.39112  1.0000
  O   O28       1.0  0.58366  0.87023  0.35480  1.0000
  O   O29       1.0  0.57076  0.94181  0.40110  1.0000
  O   O30       1.0  0.49946  0.85785  0.36135  1.0000
  C   C173      1.0  0.34289  0.44672  0.38870  1.0000
  N   N49       1.0  0.35580  0.46625  0.38961  1.0000
  N   N50       1.0  0.33043  0.47309  0.38029  1.0000
  C   C174      1.0  0.31701  0.45369  0.38002  1.0000
  N   N51       1.0  0.32354  0.44074  0.38329  1.0000
  C   C175      1.0  0.36353  0.49996  0.38086  1.0000
  C   C176      1.0  0.34970  0.43324  0.39079  1.0000
  O   O31       1.0  0.28473  0.42788  0.35469  1.0000
  O   O32       1.0  0.36921  0.44076  0.40093  1.0000
  O   O33       1.0  0.35655  0.51207  0.36135  1.0000
  C   C177      1.0  0.10201  0.66865  0.38891  1.0000
  N   N52       1.0  0.10862  0.65573  0.38981  1.0000
  N   N53       1.0  0.14083  0.68111  0.38030  1.0000
  C   C178      1.0  0.13485  0.69452  0.38004  1.0000
  N   N54       1.0  0.11537  0.68800  0.38343  1.0000
  C   C179      1.0  0.13459  0.64800  0.38092  1.0000
  C   C180      1.0  0.08171  0.66184  0.39113  1.0000
  O   O34       1.0  0.14131  0.72680  0.35477  1.0000
  O   O35       1.0  0.06972  0.64233  0.40113  1.0000
  O   O36       1.0  0.15369  0.65498  0.36133  1.0000
  C   C181      1.0  0.18315  0.44465  0.36593  1.0000
  C   C182      1.0  0.19936  0.44227  0.38240  1.0000
  C   C183      1.0  0.23247  0.44912  0.34173  1.0000
  C   C184      1.0  0.24267  0.45811  0.42100  1.0000
  C   C185      1.0  0.26139  0.46080  0.43667  1.0000
  C   C186      1.0  0.27026  0.45419  0.37477  1.0000
  H   H91       1.0  0.23708  0.46383  0.46561  1.0000
  H   H92       1.0  0.26878  0.46813  0.49275  1.0000
  H   H93       1.0  0.17267  0.44054  0.41412  1.0000
  H   H94       1.0  0.20001  0.43610  0.44127  1.0000
  N   N55       1.0  0.28933  0.45906  0.38675  1.0000
  H   H95       1.0  0.29806  0.47211  0.41022  1.0000
  C   C187      1.0  0.56689  0.75187  0.36592  1.0000
  C   C188      1.0  0.56927  0.77046  0.38239  1.0000
  C   C189      1.0  0.56242  0.79672  0.34174  1.0000
  C   C190      1.0  0.55343  0.79793  0.42099  1.0000
  C   C191      1.0  0.55073  0.81395  0.43668  1.0000
  C   C192      1.0  0.55734  0.82944  0.37479  1.0000
  H   H96       1.0  0.54770  0.78662  0.46559  1.0000
  H   H97       1.0  0.54340  0.81402  0.49274  1.0000
  H   H98       1.0  0.57099  0.74550  0.41411  1.0000
  H   H99       1.0  0.57544  0.77729  0.44127  1.0000
  N   N56       1.0  0.55248  0.84365  0.38677  1.0000
  H   H100      1.0  0.53942  0.83932  0.41021  1.0000
  C   C193      1.0  0.25966  0.82839  0.36588  1.0000
  C   C194      1.0  0.24108  0.81218  0.38235  1.0000
  C   C195      1.0  0.21482  0.77907  0.34168  1.0000
  C   C196      1.0  0.21361  0.76887  0.42093  1.0000
  C   C197      1.0  0.19759  0.75015  0.43662  1.0000
  C   C198      1.0  0.18211  0.74128  0.37473  1.0000
  H   H101      1.0  0.22493  0.77445  0.46553  1.0000
  H   H102      1.0  0.19752  0.74275  0.49268  1.0000
  H   H103      1.0  0.26603  0.83886  0.41408  1.0000
  H   H104      1.0  0.23425  0.81153  0.44124  1.0000
  N   N57       1.0  0.16789  0.72220  0.38672  1.0000
  H   H105      1.0  0.17223  0.71348  0.41015  1.0000
  C   C199      1.0  0.82332  0.57196  0.36591  1.0000
  C   C200      1.0  0.80711  0.57434  0.38238  1.0000
  C   C201      1.0  0.77400  0.56749  0.34173  1.0000
  C   C202      1.0  0.76380  0.55850  0.42098  1.0000
  C   C203      1.0  0.74508  0.55580  0.43667  1.0000
  C   C204      1.0  0.73621  0.56241  0.37479  1.0000
  H   H106      1.0  0.76938  0.55277  0.46558  1.0000
  H   H107      1.0  0.73768  0.54847  0.49273  1.0000
  H   H108      1.0  0.83379  0.57606  0.41410  1.0000
  H   H109      1.0  0.80646  0.58051  0.44126  1.0000
  N   N58       1.0  0.71713  0.55755  0.38677  1.0000
  H   H110      1.0  0.70840  0.54449  0.41020  1.0000
  C   C205      1.0  0.43958  0.26473  0.36592  1.0000
  C   C206      1.0  0.43720  0.24615  0.38239  1.0000
  C   C207      1.0  0.44405  0.21989  0.34172  1.0000
  C   C208      1.0  0.45304  0.21867  0.42099  1.0000
  C   C209      1.0  0.45574  0.20265  0.43667  1.0000
  C   C210      1.0  0.44913  0.18717  0.37477  1.0000
  H   H111      1.0  0.45877  0.22999  0.46560  1.0000
  H   H112      1.0  0.46306  0.20258  0.49274  1.0000
  H   H113      1.0  0.43547  0.27110  0.41412  1.0000
  H   H114      1.0  0.43103  0.23932  0.44127  1.0000
  N   N59       1.0  0.45399  0.17296  0.38674  1.0000
  H   H115      1.0  0.46704  0.17729  0.41022  1.0000
  C   C211      1.0  0.74681  0.18822  0.36596  1.0000
  C   C212      1.0  0.76539  0.20443  0.38243  1.0000
  C   C213      1.0  0.79165  0.23754  0.34178  1.0000
  C   C214      1.0  0.79287  0.24774  0.42104  1.0000
  C   C215      1.0  0.80889  0.26646  0.43673  1.0000
  C   C216      1.0  0.82437  0.27533  0.37482  1.0000
  H   H116      1.0  0.78156  0.24215  0.46566  1.0000
  H   H117      1.0  0.80897  0.27385  0.49280  1.0000
  H   H118      1.0  0.74043  0.17775  0.41415  1.0000
  H   H119      1.0  0.77222  0.20508  0.44130  1.0000
  N   N60       1.0  0.83858  0.29440  0.38679  1.0000
  H   H120      1.0  0.83426  0.30313  0.41028  1.0000
  C   C217      1.0  0.12724  0.61416  0.38147  1.0000
  C   C218      1.0  0.13165  0.58114  0.34328  1.0000
  C   C219      1.0  0.12295  0.58225  0.42370  1.0000
  C   C220      1.0  0.12056  0.59840  0.44186  1.0000
  H   H121      1.0  0.11723  0.57080  0.46756  1.0000
  H   H122      1.0  0.11344  0.59837  0.49882  1.0000
  C   C221      1.0  0.13631  0.53622  0.36153  1.0000
  C   C222      1.0  0.13841  0.55461  0.38056  1.0000
  H   H123      1.0  0.14040  0.52965  0.40881  1.0000
  H   H124      1.0  0.14447  0.56113  0.44009  1.0000
  N   N61       1.0  0.12264  0.62853  0.39584  1.0000
  H   H125      1.0  0.10961  0.62424  0.41958  1.0000
  C   C223      1.0  0.39737  0.52645  0.38137  1.0000
  C   C224      1.0  0.43039  0.56388  0.34319  1.0000
  C   C225      1.0  0.42928  0.55406  0.42357  1.0000
  C   C226      1.0  0.41314  0.53553  0.44174  1.0000
  H   H126      1.0  0.44074  0.55979  0.46742  1.0000
  H   H127      1.0  0.41317  0.52843  0.49867  1.0000
  C   C227      1.0  0.47531  0.61346  0.36143  1.0000
  C   C228      1.0  0.45692  0.59716  0.38048  1.0000
  H   H128      1.0  0.48188  0.62411  0.40873  1.0000
  H   H129      1.0  0.45041  0.59671  0.44004  1.0000
  N   N62       1.0  0.38301  0.50748  0.39572  1.0000
  H   H130      1.0  0.38729  0.49873  0.41941  1.0000
  C   C229      1.0  0.48508  0.88429  0.38148  1.0000
  C   C230      1.0  0.44765  0.87988  0.34328  1.0000
  C   C231      1.0  0.45746  0.88858  0.42370  1.0000
  C   C232      1.0  0.47599  0.89097  0.44187  1.0000
  H   H131      1.0  0.45173  0.89430  0.46756  1.0000
  H   H132      1.0  0.48309  0.89809  0.49883  1.0000
  C   C233      1.0  0.39807  0.87522  0.36152  1.0000
  C   C234      1.0  0.41436  0.87312  0.38055  1.0000
  H   H133      1.0  0.38742  0.87113  0.40881  1.0000
  H   H134      1.0  0.41481  0.86706  0.44009  1.0000
  N   N63       1.0  0.50405  0.88890  0.39585  1.0000
  H   H135      1.0  0.51279  0.90192  0.41959  1.0000
  C   C235      1.0  0.87922  0.40244  0.38138  1.0000
  C   C236      1.0  0.87480  0.43546  0.34319  1.0000
  C   C237      1.0  0.88352  0.43435  0.42358  1.0000
  C   C238      1.0  0.88591  0.41821  0.44175  1.0000
  H   H136      1.0  0.88925  0.44581  0.46742  1.0000
  H   H137      1.0  0.89304  0.41824  0.49868  1.0000
  C   C239      1.0  0.87016  0.48038  0.36143  1.0000
  C   C240      1.0  0.86805  0.46199  0.38048  1.0000
  H   H138      1.0  0.86608  0.48695  0.40873  1.0000
  H   H139      1.0  0.86200  0.45548  0.44004  1.0000
  N   N64       1.0  0.88383  0.38808  0.39574  1.0000
  H   H140      1.0  0.89686  0.39237  0.41943  1.0000
  C   C241      1.0  0.60909  0.49015  0.38148  1.0000
  C   C242      1.0  0.57607  0.45272  0.34329  1.0000
  C   C243      1.0  0.57718  0.46254  0.42370  1.0000
  C   C244      1.0  0.59332  0.48106  0.44188  1.0000
  H   H141      1.0  0.56573  0.45680  0.46757  1.0000
  H   H142      1.0  0.59330  0.48816  0.49883  1.0000
  C   C245      1.0  0.53115  0.40314  0.36153  1.0000
  C   C246      1.0  0.54954  0.41943  0.38056  1.0000
  H   H143      1.0  0.52458  0.39249  0.40881  1.0000
  H   H144      1.0  0.55606  0.41989  0.44010  1.0000
  N   N65       1.0  0.62345  0.50912  0.39586  1.0000
  H   H145      1.0  0.61917  0.51786  0.41959  1.0000
  C   C247      1.0  0.52138  0.13231  0.38137  1.0000
  C   C248      1.0  0.55881  0.13673  0.34319  1.0000
  C   C249      1.0  0.54899  0.12801  0.42358  1.0000
  C   C250      1.0  0.53046  0.12562  0.44174  1.0000
  H   H146      1.0  0.55471  0.12228  0.46742  1.0000
  H   H147      1.0  0.52336  0.11849  0.49867  1.0000
  C   C251      1.0  0.60838  0.14138  0.36145  1.0000
  C   C252      1.0  0.59209  0.14348  0.38048  1.0000
  H   H148      1.0  0.61904  0.14546  0.40874  1.0000
  H   H149      1.0  0.59164  0.14953  0.44005  1.0000
  N   N66       1.0  0.50240  0.12770  0.39573  1.0000
  H   H150      1.0  0.49366  0.11467  0.41942  1.0000
  C   C253      1.0  0.04724  0.38906  0.37386  1.0000
  C   C254      1.0  0.02702  0.37709  0.38758  1.0000
  C   C255      1.0  0.99302  0.36575  0.34042  1.0000
  C   C256      1.0  0.98573  0.36942  0.41973  1.0000
  C   C257      1.0  0.96554  0.36146  0.43268  1.0000
  C   C258      1.0  0.95206  0.34964  0.36666  1.0000
  H   H151      1.0  0.99508  0.37874  0.46698  1.0000
  H   H152      1.0  0.96074  0.36479  0.48969  1.0000
  H   H153      1.0  0.05668  0.39014  0.42315  1.0000
  H   H154      1.0  0.02227  0.36955  0.44619  1.0000
  N   N67       1.0  0.93247  0.34298  0.37497  1.0000
  H   H155      1.0  0.92366  0.32956  0.35608  1.0000
  C   C259      1.0  0.62246  0.67154  0.37384  1.0000
  C   C260      1.0  0.63443  0.66329  0.38756  1.0000
  C   C261      1.0  0.64577  0.64063  0.34044  1.0000
  C   C262      1.0  0.64210  0.62967  0.41975  1.0000
  C   C263      1.0  0.65006  0.61744  0.43269  1.0000
  C   C264      1.0  0.66188  0.61577  0.36667  1.0000
  H   H156      1.0  0.63278  0.62970  0.46699  1.0000
  H   H157      1.0  0.64673  0.60931  0.48971  1.0000
  H   H158      1.0  0.62138  0.67990  0.42311  1.0000
  H   H159      1.0  0.64198  0.66609  0.44616  1.0000
  N   N68       1.0  0.66854  0.60284  0.37496  1.0000
  H   H160      1.0  0.68196  0.60744  0.35606  1.0000
  C   C265      1.0  0.33998  0.96429  0.37387  1.0000
  C   C266      1.0  0.34823  0.98452  0.38758  1.0000
  C   C267      1.0  0.37089  0.01852  0.34044  1.0000
  C   C268      1.0  0.38185  0.02581  0.41975  1.0000
  C   C269      1.0  0.39408  0.04600  0.43270  1.0000
  C   C270      1.0  0.39575  0.05949  0.36667  1.0000
  H   H161      1.0  0.38181  0.01646  0.46700  1.0000
  H   H162      1.0  0.40221  0.05080  0.48971  1.0000
  H   H163      1.0  0.33162  0.95486  0.42315  1.0000
  H   H164      1.0  0.34544  0.98927  0.44620  1.0000
  N   N69       1.0  0.40868  0.07908  0.37498  1.0000
  H   H165      1.0  0.40406  0.08788  0.35608  1.0000
  C   C271      1.0  0.95922  0.62753  0.37385  1.0000
  C   C272      1.0  0.97944  0.63951  0.38756  1.0000
  C   C273      1.0  0.01345  0.65085  0.34044  1.0000
  C   C274      1.0  0.02074  0.64718  0.41975  1.0000
  C   C275      1.0  0.04093  0.65514  0.43270  1.0000
  C   C276      1.0  0.05441  0.66695  0.36667  1.0000
  H   H166      1.0  0.01138  0.63786  0.46700  1.0000
  H   H167      1.0  0.04573  0.65180  0.48971  1.0000
  H   H168      1.0  0.94979  0.62646  0.42312  1.0000
  H   H169      1.0  0.98420  0.64706  0.44616  1.0000
  N   N70       1.0  0.07400  0.67361  0.37495  1.0000
  H   H170      1.0  0.08282  0.68703  0.35606  1.0000
  C   C277      1.0  0.38399  0.34505  0.37386  1.0000
  C   C278      1.0  0.37202  0.35330  0.38758  1.0000
  C   C279      1.0  0.36067  0.37596  0.34043  1.0000
  C   C280      1.0  0.36434  0.38692  0.41974  1.0000
  C   C281      1.0  0.35638  0.39915  0.43269  1.0000
  C   C282      1.0  0.34457  0.40082  0.36666  1.0000
  H   H171      1.0  0.37366  0.38688  0.46698  1.0000
  H   H172      1.0  0.35971  0.40728  0.48970  1.0000
  H   H173      1.0  0.38507  0.33669  0.42315  1.0000
  H   H174      1.0  0.36447  0.35051  0.44619  1.0000
  N   N71       1.0  0.33791  0.41375  0.37497  1.0000
  H   H175      1.0  0.32448  0.40913  0.35607  1.0000
  C   C283      1.0  0.66648  0.05232  0.37384  1.0000
  C   C284      1.0  0.65823  0.03209  0.38755  1.0000
  C   C285      1.0  0.63556  0.99809  0.34043  1.0000
  C   C286      1.0  0.62460  0.99080  0.41973  1.0000
  C   C287      1.0  0.61237  0.97061  0.43268  1.0000
  C   C288      1.0  0.61070  0.95713  0.36666  1.0000
  H   H176      1.0  0.62463  0.00016  0.46697  1.0000
  H   H177      1.0  0.60423  0.96581  0.48969  1.0000
  H   H178      1.0  0.67483  0.06175  0.42311  1.0000
  H   H179      1.0  0.66102  0.02734  0.44615  1.0000
  N   N72       1.0  0.59777  0.93754  0.37495  1.0000
  H   H180      1.0  0.60237  0.92872  0.35606  1.0000
