data_image0
_chemical_formula_structural       C15HCH3CHC3HCH3CHC3HCH3CHC3HCH3CHC3HCH3CHC3HCH3CHC3HCH3CHC3HCH3CHC3HCH3CHC3HCH3CHC3HCH3CHC3HCH3CHC3HCH3CHC3HCH3CHC3HCH3CHC3HCH3CHC3HCH3CHC3HCH3CHC3HCH3CHC3HCH3CHC3HCH3CHC3HCH3CHC3HCH3CHC3HCH3CHNCNCN5CNCN5CNCN5CNCN5CNCN5CNCN5CNCN5CNCN5CNCN5CNCN4CNCNCN4CNCNCN5CNCN5CNCN4CNCNCN4CNCNCN4C3HCH3CHC3HCH3CHC3HCH3CHC3HCH3CHC3HCH3CHC3HCH3CHC3HCH3CHC3HCH3CHC3HCH3CHC3HCH3CHC3HCH3CHC3HCH3CHC3HCH3CHC3HCH3CHC3HCH3CHC3HCH3CHC3HCH3CHC3HCH3CHC3HCH3CHC3HCH3CHC3HCH3CHC3HCH3CHC3HCH3CHC3HCH3CH
_chemical_formula_sum              "C288 H240 N96"
_cell_length_a       67.1786
_cell_length_b       52.6782
_cell_length_c       14.6343
_cell_angle_alpha    90
_cell_angle_beta     90
_cell_angle_gamma    90

_space_group_name_H-M_alt    "P 1"
_space_group_IT_number       1

loop_
  _space_group_symop_operation_xyz
  'x, y, z'

loop_
  _atom_site_type_symbol
  _atom_site_label
  _atom_site_symmetry_multiplicity
  _atom_site_fract_x
  _atom_site_fract_y
  _atom_site_fract_z
  _atom_site_occupancy
  C   C1        1.0  0.03094  0.14744  0.35868  1.0000
  C   C2        1.0  0.99409  0.87750  0.35998  1.0000
  C   C3        1.0  0.53093  0.64743  0.35826  1.0000
  C   C4        1.0  0.49408  0.37750  0.35950  1.0000
  C   C5        1.0  0.40776  0.98931  0.36082  1.0000
  C   C6        1.0  0.61729  0.03568  0.36060  1.0000
  C   C7        1.0  0.90777  0.48930  0.36048  1.0000
  C   C8        1.0  0.11729  0.53571  0.36013  1.0000
  C   C9        1.0  0.18743  0.27506  0.35995  1.0000
  C   C10       1.0  0.83756  0.74993  0.35993  1.0000
  C   C11       1.0  0.68744  0.77507  0.35773  1.0000
  C   C12       1.0  0.33756  0.24993  0.35772  1.0000
  C   C13       1.0  0.01552  0.03976  0.35070  1.0000
  C   C14       1.0  0.01920  0.02343  0.27464  1.0000
  C   C15       1.0  0.01597  0.99680  0.28282  1.0000
  H   H1        1.0  0.01821  0.98553  0.22659  1.0000
  C   C16       1.0  0.02601  0.03289  0.18394  1.0000
  H   H2        1.0  0.02746  0.05348  0.18077  1.0000
  H   H3        1.0  0.01537  0.02727  0.13129  1.0000
  H   H4        1.0  0.04048  0.02464  0.16763  1.0000
  C   C17       1.0  0.02067  0.06575  0.35104  1.0000
  H   H5        1.0  0.03501  0.06985  0.34310  1.0000
  C   C18       1.0  0.51554  0.53975  0.35058  1.0000
  C   C19       1.0  0.51922  0.52342  0.27453  1.0000
  C   C20       1.0  0.51599  0.49679  0.28274  1.0000
  H   H6        1.0  0.51823  0.48551  0.22653  1.0000
  C   C21       1.0  0.52604  0.53286  0.18380  1.0000
  H   H7        1.0  0.52749  0.55345  0.18058  1.0000
  H   H8        1.0  0.51540  0.52723  0.13116  1.0000
  H   H9        1.0  0.54051  0.52460  0.16754  1.0000
  C   C22       1.0  0.52067  0.56575  0.35077  1.0000
  H   H10       1.0  0.53499  0.56987  0.34241  1.0000
  C   C23       1.0  0.10670  0.22645  0.35068  1.0000
  C   C24       1.0  0.09555  0.22084  0.27032  1.0000
  C   C25       1.0  0.07904  0.20405  0.27573  1.0000
  H   H11       1.0  0.07049  0.20140  0.21838  1.0000
  C   C26       1.0  0.09966  0.23267  0.17977  1.0000
  H   H12       1.0  0.11288  0.24467  0.17955  1.0000
  H   H13       1.0  0.08698  0.24431  0.15912  1.0000
  H   H14       1.0  0.10193  0.21785  0.12867  1.0000
  C   C27       1.0  0.11981  0.24712  0.35497  1.0000
  H   H15       1.0  0.11360  0.26427  0.35346  1.0000
  C   C28       1.0  0.91828  0.79858  0.35203  1.0000
  C   C29       1.0  0.92939  0.80429  0.27163  1.0000
  C   C30       1.0  0.94593  0.82101  0.27709  1.0000
  H   H16       1.0  0.95443  0.82375  0.21966  1.0000
  C   C31       1.0  0.92519  0.79258  0.18096  1.0000
  H   H17       1.0  0.91195  0.78061  0.18077  1.0000
  H   H18       1.0  0.93783  0.78094  0.15989  1.0000
  H   H19       1.0  0.92290  0.80748  0.13015  1.0000
  C   C32       1.0  0.90519  0.77790  0.35636  1.0000
  H   H20       1.0  0.91141  0.76076  0.35560  1.0000
  C   C33       1.0  0.94766  0.18506  0.35252  1.0000
  C   C34       1.0  0.93545  0.19153  0.27625  1.0000
  C   C35       1.0  0.92112  0.21127  0.28471  1.0000
  H   H21       1.0  0.91280  0.21611  0.22859  1.0000
  C   C36       1.0  0.93713  0.17906  0.18521  1.0000
  H   H22       1.0  0.94882  0.16475  0.18199  1.0000
  H   H23       1.0  0.94042  0.19331  0.13313  1.0000
  H   H24       1.0  0.92306  0.16986  0.16812  1.0000
  C   C37       1.0  0.96102  0.16452  0.35175  1.0000
  H   H25       1.0  0.95552  0.14726  0.34108  1.0000
  C   C38       1.0  0.07738  0.83992  0.35203  1.0000
  C   C39       1.0  0.08961  0.83345  0.27580  1.0000
  C   C40       1.0  0.10394  0.81371  0.28430  1.0000
  H   H26       1.0  0.11227  0.80888  0.22820  1.0000
  C   C41       1.0  0.08795  0.84592  0.18476  1.0000
  H   H27       1.0  0.07626  0.86024  0.18150  1.0000
  H   H28       1.0  0.08467  0.83169  0.13265  1.0000
  H   H29       1.0  0.10203  0.85513  0.16775  1.0000
  C   C42       1.0  0.06401  0.86044  0.35117  1.0000
  H   H30       1.0  0.06951  0.87772  0.34069  1.0000
  C   C43       1.0  0.60674  0.72638  0.34858  1.0000
  C   C44       1.0  0.59557  0.72071  0.26834  1.0000
  C   C45       1.0  0.57905  0.70394  0.27395  1.0000
  H   H31       1.0  0.57050  0.70125  0.21664  1.0000
  C   C46       1.0  0.59968  0.73246  0.17766  1.0000
  H   H32       1.0  0.61291  0.74445  0.17732  1.0000
  H   H33       1.0  0.58701  0.74408  0.15687  1.0000
  H   H34       1.0  0.60195  0.71759  0.12673  1.0000
  C   C47       1.0  0.61983  0.74708  0.35277  1.0000
  H   H35       1.0  0.61360  0.76421  0.35199  1.0000
  C   C48       1.0  0.41827  0.29861  0.34990  1.0000
  C   C49       1.0  0.42937  0.30440  0.26959  1.0000
  C   C50       1.0  0.44592  0.32112  0.27528  1.0000
  H   H36       1.0  0.45442  0.32392  0.21790  1.0000
  C   C51       1.0  0.42518  0.29278  0.17876  1.0000
  H   H37       1.0  0.41195  0.28080  0.17844  1.0000
  H   H38       1.0  0.43783  0.28118  0.15752  1.0000
  H   H39       1.0  0.42287  0.30773  0.12816  1.0000
  C   C52       1.0  0.40518  0.27792  0.35404  1.0000
  H   H40       1.0  0.41142  0.26079  0.35390  1.0000
  C   C53       1.0  0.44766  0.68505  0.35439  1.0000
  C   C54       1.0  0.43545  0.69160  0.27818  1.0000
  C   C55       1.0  0.42113  0.71132  0.28686  1.0000
  H   H41       1.0  0.41281  0.71622  0.23077  1.0000
  C   C56       1.0  0.43715  0.67922  0.18697  1.0000
  H   H42       1.0  0.44883  0.66490  0.18362  1.0000
  H   H43       1.0  0.44045  0.69352  0.13511  1.0000
  H   H44       1.0  0.42307  0.67004  0.16970  1.0000
  C   C57       1.0  0.46101  0.66451  0.35338  1.0000
  H   H45       1.0  0.45549  0.64724  0.34306  1.0000
  C   C58       1.0  0.57738  0.33993  0.35392  1.0000
  C   C59       1.0  0.58961  0.33339  0.27776  1.0000
  C   C60       1.0  0.60393  0.31366  0.28649  1.0000
  H   H46       1.0  0.61226  0.30878  0.23044  1.0000
  C   C61       1.0  0.58795  0.34579  0.18659  1.0000
  H   H47       1.0  0.57626  0.36012  0.18320  1.0000
  H   H48       1.0  0.58465  0.33151  0.13465  1.0000
  H   H49       1.0  0.60202  0.35497  0.16946  1.0000
  C   C62       1.0  0.56402  0.36046  0.35283  1.0000
  H   H50       1.0  0.56954  0.37773  0.34267  1.0000
  C   C63       1.0  0.38456  0.15444  0.34754  1.0000
  C   C64       1.0  0.39118  0.14132  0.26807  1.0000
  C   C65       1.0  0.39683  0.11547  0.27532  1.0000
  H   H51       1.0  0.40266  0.10662  0.21883  1.0000
  C   C66       1.0  0.39338  0.15355  0.17679  1.0000
  H   H52       1.0  0.38810  0.17310  0.17515  1.0000
  H   H53       1.0  0.38485  0.14292  0.12607  1.0000
  H   H54       1.0  0.40903  0.15351  0.15665  1.0000
  C   C67       1.0  0.38297  0.18082  0.34995  1.0000
  H   H55       1.0  0.39550  0.19073  0.34345  1.0000
  C   C68       1.0  0.64041  0.87055  0.34899  1.0000
  C   C69       1.0  0.63378  0.88374  0.26966  1.0000
  C   C70       1.0  0.62817  0.90960  0.27720  1.0000
  H   H56       1.0  0.62233  0.91849  0.22085  1.0000
  C   C71       1.0  0.63155  0.87160  0.17824  1.0000
  H   H57       1.0  0.63681  0.85203  0.17635  1.0000
  H   H58       1.0  0.64008  0.88225  0.12762  1.0000
  H   H59       1.0  0.61589  0.87169  0.15818  1.0000
  C   C72       1.0  0.64201  0.84416  0.35096  1.0000
  H   H60       1.0  0.62949  0.83425  0.34431  1.0000
  C   C73       1.0  0.63083  0.10253  0.34874  1.0000
  C   C74       1.0  0.63844  0.11670  0.27353  1.0000
  C   C75       1.0  0.64352  0.14259  0.28619  1.0000
  H   H61       1.0  0.64796  0.15299  0.23053  1.0000
  C   C76       1.0  0.64067  0.10606  0.17976  1.0000
  H   H62       1.0  0.63740  0.08581  0.17599  1.0000
  H   H63       1.0  0.65596  0.10868  0.15634  1.0000
  H   H64       1.0  0.63067  0.11594  0.13293  1.0000
  C   C77       1.0  0.62055  0.07981  0.33689  1.0000
  H   H65       1.0  0.60939  0.08027  0.29211  1.0000
  C   C78       1.0  0.39415  0.92246  0.35007  1.0000
  C   C79       1.0  0.38656  0.90836  0.27470  1.0000
  C   C80       1.0  0.38151  0.88244  0.28700  1.0000
  H   H66       1.0  0.37704  0.87210  0.23125  1.0000
  C   C81       1.0  0.38434  0.91910  0.18108  1.0000
  H   H67       1.0  0.38762  0.93935  0.17764  1.0000
  H   H68       1.0  0.36906  0.91651  0.15760  1.0000
  H   H69       1.0  0.39434  0.90926  0.13414  1.0000
  C   C82       1.0  0.40454  0.94512  0.33866  1.0000
  H   H70       1.0  0.41575  0.94458  0.29410  1.0000
  C   C83       1.0  0.88454  0.65443  0.34932  1.0000
  C   C84       1.0  0.89110  0.64135  0.26966  1.0000
  C   C85       1.0  0.89674  0.61549  0.27667  1.0000
  H   H71       1.0  0.90252  0.60666  0.22004  1.0000
  C   C86       1.0  0.89323  0.65361  0.17843  1.0000
  H   H72       1.0  0.88796  0.67318  0.17702  1.0000
  H   H73       1.0  0.88464  0.64303  0.12780  1.0000
  H   H74       1.0  0.90886  0.65356  0.15800  1.0000
  C   C87       1.0  0.88297  0.68081  0.35195  1.0000
  H   H75       1.0  0.89553  0.69071  0.34628  1.0000
  C   C88       1.0  0.14043  0.37058  0.35072  1.0000
  C   C89       1.0  0.13387  0.38374  0.27122  1.0000
  C   C90       1.0  0.12826  0.40961  0.27857  1.0000
  H   H76       1.0  0.12247  0.41849  0.22209  1.0000
  C   C91       1.0  0.13170  0.37156  0.17985  1.0000
  H   H77       1.0  0.13693  0.35199  0.17816  1.0000
  H   H78       1.0  0.14028  0.38217  0.12930  1.0000
  H   H79       1.0  0.11606  0.37167  0.15953  1.0000
  C   C92       1.0  0.14202  0.34419  0.35286  1.0000
  H   H80       1.0  0.12947  0.33429  0.34715  1.0000
  C   C93       1.0  0.13081  0.60251  0.34756  1.0000
  C   C94       1.0  0.13838  0.61662  0.27215  1.0000
  C   C95       1.0  0.14347  0.64253  0.28455  1.0000
  H   H81       1.0  0.14788  0.65289  0.22876  1.0000
  C   C96       1.0  0.14054  0.60593  0.17842  1.0000
  H   H82       1.0  0.13729  0.58567  0.17490  1.0000
  H   H83       1.0  0.15581  0.60855  0.15472  1.0000
  H   H84       1.0  0.13050  0.61577  0.13168  1.0000
  C   C97       1.0  0.12046  0.57982  0.33611  1.0000
  H   H85       1.0  0.10942  0.58022  0.29073  1.0000
  C   C98       1.0  0.89416  0.42247  0.34883  1.0000
  C   C99       1.0  0.88662  0.40839  0.27327  1.0000
  C   C100      1.0  0.88157  0.38247  0.28535  1.0000
  H   H86       1.0  0.87715  0.37215  0.22947  1.0000
  C   C101      1.0  0.88448  0.41917  0.17966  1.0000
  H   H87       1.0  0.88775  0.43943  0.17638  1.0000
  H   H88       1.0  0.86921  0.41658  0.15591  1.0000
  H   H89       1.0  0.89452  0.40936  0.13283  1.0000
  C   C102      1.0  0.90455  0.44514  0.33771  1.0000
  H   H90       1.0  0.91577  0.44465  0.29321  1.0000
  C   C103      1.0  0.49199  0.01900  0.35344  1.0000
  C   C104      1.0  0.50459  0.02177  0.27597  1.0000
  C   C105      1.0  0.52493  0.01515  0.28429  1.0000
  H   H91       1.0  0.53399  0.01689  0.22818  1.0000
  C   C106      1.0  0.49770  0.03089  0.18491  1.0000
  H   H92       1.0  0.48181  0.03504  0.18248  1.0000
  H   H93       1.0  0.50075  0.01645  0.13323  1.0000
  H   H94       1.0  0.50569  0.04820  0.16666  1.0000
  C   C107      1.0  0.47207  0.02576  0.35213  1.0000
  H   H95       1.0  0.46851  0.04389  0.34238  1.0000
  C   C108      1.0  0.99199  0.51902  0.35375  1.0000
  C   C109      1.0  0.00460  0.52178  0.27627  1.0000
  C   C110      1.0  0.02493  0.51516  0.28460  1.0000
  H   H96       1.0  0.03399  0.51689  0.22848  1.0000
  C   C111      1.0  0.99770  0.53090  0.18520  1.0000
  H   H97       1.0  0.98182  0.53505  0.18279  1.0000
  H   H98       1.0  0.00075  0.51645  0.13354  1.0000
  H   H99       1.0  0.00569  0.54821  0.16694  1.0000
  C   C112      1.0  0.97207  0.52577  0.35245  1.0000
  H   H100      1.0  0.96851  0.54390  0.34269  1.0000
  C   C113      1.0  0.28307  0.25459  0.35789  1.0000
  C   C114      1.0  0.27445  0.26615  0.27929  1.0000
  C   C115      1.0  0.25425  0.27408  0.28226  1.0000
  H   H101      1.0  0.24830  0.28268  0.22557  1.0000
  C   C116      1.0  0.28534  0.27018  0.19181  1.0000
  H   H102      1.0  0.30058  0.26318  0.19296  1.0000
  H   H103      1.0  0.28584  0.29044  0.17618  1.0000
  H   H104      1.0  0.27758  0.26041  0.13647  1.0000
  C   C117      1.0  0.30226  0.24418  0.35978  1.0000
  H   H105      1.0  0.30321  0.22539  0.36509  1.0000
  C   C118      1.0  0.74193  0.77039  0.35790  1.0000
  C   C119      1.0  0.75055  0.75884  0.27928  1.0000
  C   C120      1.0  0.77074  0.75090  0.28221  1.0000
  H   H106      1.0  0.77669  0.74230  0.22551  1.0000
  C   C121      1.0  0.73965  0.75482  0.19181  1.0000
  H   H107      1.0  0.72441  0.76184  0.19298  1.0000
  H   H108      1.0  0.73913  0.73456  0.17617  1.0000
  H   H109      1.0  0.74741  0.76458  0.13646  1.0000
  C   C122      1.0  0.72275  0.78082  0.35986  1.0000
  H   H110      1.0  0.72180  0.79960  0.36533  1.0000
  C   C123      1.0  0.78319  0.26993  0.35736  1.0000
  C   C124      1.0  0.77441  0.25866  0.27858  1.0000
  C   C125      1.0  0.75411  0.25117  0.28143  1.0000
  H   H111      1.0  0.74805  0.24273  0.22466  1.0000
  C   C126      1.0  0.78525  0.25448  0.19106  1.0000
  H   H112      1.0  0.80059  0.26115  0.19234  1.0000
  H   H113      1.0  0.77763  0.26448  0.13585  1.0000
  H   H114      1.0  0.78549  0.23423  0.17516  1.0000
  C   C127      1.0  0.80248  0.28003  0.35931  1.0000
  H   H115      1.0  0.80358  0.29879  0.36544  1.0000
  C   C128      1.0  0.24185  0.75498  0.35729  1.0000
  C   C129      1.0  0.25062  0.76632  0.27861  1.0000
  C   C130      1.0  0.27092  0.77382  0.28153  1.0000
  H   H116      1.0  0.27698  0.78229  0.22481  1.0000
  C   C131      1.0  0.23978  0.77053  0.19111  1.0000
  H   H117      1.0  0.22446  0.76382  0.19229  1.0000
  H   H118      1.0  0.24742  0.76058  0.13582  1.0000
  H   H119      1.0  0.23952  0.79079  0.17536  1.0000
  C   C132      1.0  0.22256  0.74491  0.35920  1.0000
  H   H120      1.0  0.22145  0.72615  0.36530  1.0000
  N   N1        1.0  0.02891  0.12160  0.35784  1.0000
  C   C133      1.0  0.01069  0.10986  0.35837  1.0000
  N   N2        1.0  0.99416  0.12507  0.35935  1.0000
  C   C134      1.0  0.99540  0.15101  0.35997  1.0000
  N   N3        1.0  0.01389  0.16149  0.35971  1.0000
  N   N4        1.0  0.04911  0.15839  0.35733  1.0000
  N   N5        1.0  0.98001  0.16725  0.36049  1.0000
  N   N6        1.0  0.00818  0.08438  0.35820  1.0000
  N   N7        1.0  0.99611  0.90334  0.35895  1.0000
  C   C135      1.0  0.01433  0.91509  0.35838  1.0000
  N   N8        1.0  0.03086  0.89988  0.35844  1.0000
  C   C136      1.0  0.02963  0.87395  0.35952  1.0000
  N   N9        1.0  0.01115  0.86345  0.36027  1.0000
  N   N10       1.0  0.97593  0.86653  0.35902  1.0000
  N   N11       1.0  0.04502  0.85771  0.35989  1.0000
  N   N12       1.0  0.01683  0.94057  0.35785  1.0000
  N   N13       1.0  0.52891  0.62159  0.35749  1.0000
  C   C137      1.0  0.51069  0.60985  0.35848  1.0000
  N   N14       1.0  0.49416  0.62507  0.35990  1.0000
  C   C138      1.0  0.49540  0.65100  0.36049  1.0000
  N   N15       1.0  0.51388  0.66149  0.35974  1.0000
  N   N16       1.0  0.54910  0.65837  0.35655  1.0000
  N   N17       1.0  0.48002  0.66725  0.36142  1.0000
  N   N18       1.0  0.50818  0.58437  0.35836  1.0000
  N   N19       1.0  0.49610  0.40335  0.35857  1.0000
  C   C139      1.0  0.51432  0.41509  0.35847  1.0000
  N   N20       1.0  0.53085  0.39988  0.35899  1.0000
  C   C140      1.0  0.52962  0.37395  0.36003  1.0000
  N   N21       1.0  0.51114  0.36346  0.36028  1.0000
  N   N22       1.0  0.47592  0.36654  0.35817  1.0000
  N   N23       1.0  0.54501  0.35771  0.36083  1.0000
  N   N24       1.0  0.51682  0.44057  0.35801  1.0000
  N   N25       1.0  0.39833  0.01230  0.36004  1.0000
  C   C141      1.0  0.40871  0.03463  0.35958  1.0000
  N   N26       1.0  0.42898  0.03333  0.35950  1.0000
  C   C142      1.0  0.43886  0.01084  0.36067  1.0000
  N   N27       1.0  0.42803  0.98917  0.36154  1.0000
  N   N28       1.0  0.39754  0.96745  0.36079  1.0000
  N   N29       1.0  0.45850  0.00873  0.36082  1.0000
  N   N30       1.0  0.39920  0.05702  0.35725  1.0000
  N   N31       1.0  0.62672  0.01268  0.36077  1.0000
  C   C143      1.0  0.61632  0.99037  0.36153  1.0000
  N   N32       1.0  0.59605  0.99167  0.36186  1.0000
  C   C144      1.0  0.58619  0.01418  0.36222  1.0000
  N   N33       1.0  0.59702  0.03584  0.36142  1.0000
  N   N34       1.0  0.62753  0.05752  0.35980  1.0000
  N   N35       1.0  0.56655  0.01629  0.36173  1.0000
  N   N36       1.0  0.62583  0.96797  0.35933  1.0000
  N   N37       1.0  0.89833  0.51230  0.35996  1.0000
  C   C145      1.0  0.90872  0.53462  0.35985  1.0000
  N   N38       1.0  0.92899  0.53333  0.35984  1.0000
  C   C146      1.0  0.93886  0.51083  0.36074  1.0000
  N   N39       1.0  0.92804  0.48917  0.36128  1.0000
  N   N40       1.0  0.89755  0.46745  0.36013  1.0000
  N   N41       1.0  0.95850  0.50874  0.36097  1.0000
  N   N42       1.0  0.89920  0.55702  0.35779  1.0000
  N   N43       1.0  0.12672  0.51272  0.36060  1.0000
  C   C147      1.0  0.11633  0.49040  0.36177  1.0000
  N   N44       1.0  0.09606  0.49169  0.36220  1.0000
  C   C148      1.0  0.08619  0.51419  0.36227  1.0000
  N   N45       1.0  0.09701  0.53585  0.36108  1.0000
  N   N46       1.0  0.12751  0.55756  0.35894  1.0000
  N   N47       1.0  0.06655  0.51630  0.36188  1.0000
  N   N48       1.0  0.12585  0.46800  0.35984  1.0000
  N   N49       1.0  0.17259  0.25734  0.35948  1.0000
  C   C149      1.0  0.15290  0.26381  0.35870  1.0000
  N   N50       1.0  0.14833  0.28908  0.35830  1.0000
  C   C150      1.0  0.16264  0.30749  0.35909  1.0000
  N   N51       1.0  0.18201  0.30002  0.35989  1.0000
  N   N52       1.0  0.20655  0.26757  0.36119  1.0000
  N   N53       1.0  0.15877  0.33239  0.35837  1.0000
  N   N54       1.0  0.13900  0.24541  0.35710  1.0000
  N   N55       1.0  0.85240  0.76766  0.35974  1.0000
  C   C151      1.0  0.87209  0.76119  0.35898  1.0000
  N   N56       1.0  0.87667  0.73592  0.35823  1.0000
  C   C152      1.0  0.86236  0.71751  0.35872  1.0000
  N   N57       1.0  0.84299  0.72498  0.35957  1.0000
  N   N58       1.0  0.81845  0.75742  0.36124  1.0000
  N   N59       1.0  0.86622  0.69261  0.35765  1.0000
  N   N60       1.0  0.88599  0.77959  0.35756  1.0000
  C   C153      1.0  0.83773  0.27402  0.35729  1.0000
  N   N61       1.0  0.85263  0.25636  0.35749  1.0000
  C   C154      1.0  0.87231  0.26293  0.35900  1.0000
  N   N62       1.0  0.87684  0.28820  0.36000  1.0000
  C   C155      1.0  0.86245  0.30650  0.35951  1.0000
  N   N63       1.0  0.84311  0.29897  0.35792  1.0000
  N   N64       1.0  0.81859  0.26661  0.35571  1.0000
  N   N65       1.0  0.86614  0.33140  0.35945  1.0000
  N   N66       1.0  0.88627  0.24460  0.35902  1.0000
  C   C156      1.0  0.18730  0.75093  0.35707  1.0000
  N   N67       1.0  0.17241  0.76859  0.35729  1.0000
  C   C157      1.0  0.15272  0.76202  0.35872  1.0000
  N   N68       1.0  0.14820  0.73674  0.35963  1.0000
  C   C158      1.0  0.16259  0.71844  0.35912  1.0000
  N   N69       1.0  0.18193  0.72597  0.35759  1.0000
  N   N70       1.0  0.20645  0.75834  0.35556  1.0000
  N   N71       1.0  0.15890  0.69354  0.35894  1.0000
  N   N72       1.0  0.13877  0.78036  0.35878  1.0000
  N   N73       1.0  0.67261  0.75733  0.35644  1.0000
  C   C159      1.0  0.65292  0.76380  0.35620  1.0000
  N   N74       1.0  0.64834  0.78906  0.35659  1.0000
  C   C160      1.0  0.66264  0.80748  0.35778  1.0000
  N   N75       1.0  0.68201  0.80002  0.35818  1.0000
  N   N76       1.0  0.70656  0.76757  0.35658  1.0000
  N   N77       1.0  0.65876  0.83238  0.35725  1.0000
  N   N78       1.0  0.63902  0.74539  0.35435  1.0000
  N   N79       1.0  0.35239  0.26766  0.35671  1.0000
  C   C161      1.0  0.37209  0.26119  0.35646  1.0000
  N   N80       1.0  0.37667  0.23593  0.35650  1.0000
  C   C162      1.0  0.36236  0.21752  0.35738  1.0000
  N   N81       1.0  0.34299  0.22498  0.35784  1.0000
  N   N82       1.0  0.31844  0.25743  0.35661  1.0000
  N   N83       1.0  0.36623  0.19262  0.35645  1.0000
  N   N84       1.0  0.38599  0.27960  0.35483  1.0000
  C   C163      1.0  0.33773  0.77402  0.35946  1.0000
  N   N85       1.0  0.35263  0.75636  0.36043  1.0000
  C   C164      1.0  0.37231  0.76292  0.36145  1.0000
  N   N86       1.0  0.37684  0.78820  0.36173  1.0000
  C   C165      1.0  0.36246  0.80650  0.36090  1.0000
  N   N87       1.0  0.34311  0.79897  0.35966  1.0000
  N   N88       1.0  0.31858  0.76660  0.36017  1.0000
  N   N89       1.0  0.36615  0.83140  0.36070  1.0000
  N   N90       1.0  0.38626  0.74459  0.36170  1.0000
  C   C166      1.0  0.68729  0.25095  0.35926  1.0000
  N   N91       1.0  0.67240  0.26862  0.36024  1.0000
  C   C167      1.0  0.65271  0.26204  0.36120  1.0000
  N   N92       1.0  0.64818  0.23677  0.36139  1.0000
  C   C168      1.0  0.66257  0.21847  0.36054  1.0000
  N   N93       1.0  0.68191  0.22600  0.35936  1.0000
  N   N94       1.0  0.70644  0.25837  0.36004  1.0000
  N   N95       1.0  0.65888  0.19357  0.36020  1.0000
  N   N96       1.0  0.63876  0.28038  0.36144  1.0000
  C   C169      1.0  0.00946  0.98518  0.36482  1.0000
  C   C170      1.0  0.00579  0.00151  0.44089  1.0000
  C   C171      1.0  0.00900  0.02815  0.43270  1.0000
  H   H121      1.0  0.00678  0.03941  0.48895  1.0000
  C   C172      1.0  0.99899  0.99206  0.53164  1.0000
  H   H122      1.0  0.99754  0.97147  0.53485  1.0000
  H   H123      1.0  0.98452  0.00031  0.54798  1.0000
  H   H124      1.0  0.00964  0.99769  0.58424  1.0000
  C   C173      1.0  0.00432  0.95919  0.36461  1.0000
  H   H125      1.0  0.98999  0.95508  0.37279  1.0000
  C   C174      1.0  0.50945  0.48519  0.36474  1.0000
  C   C175      1.0  0.50575  0.50153  0.44074  1.0000
  C   C176      1.0  0.50898  0.52816  0.43254  1.0000
  H   H126      1.0  0.50673  0.53943  0.48873  1.0000
  C   C177      1.0  0.49891  0.49209  0.53143  1.0000
  H   H127      1.0  0.49744  0.47150  0.53463  1.0000
  H   H128      1.0  0.48444  0.50035  0.54762  1.0000
  H   H129      1.0  0.50954  0.49771  0.58413  1.0000
  C   C178      1.0  0.50431  0.45920  0.36446  1.0000
  H   H130      1.0  0.48997  0.45509  0.37225  1.0000
  C   C179      1.0  0.07298  0.19240  0.35841  1.0000
  C   C180      1.0  0.08444  0.19756  0.43828  1.0000
  C   C181      1.0  0.10102  0.21429  0.43293  1.0000
  H   H131      1.0  0.10843  0.21890  0.49195  1.0000
  C   C182      1.0  0.07931  0.18729  0.53011  1.0000
  H   H132      1.0  0.06675  0.17419  0.52891  1.0000
  H   H133      1.0  0.07559  0.20288  0.57622  1.0000
  H   H134      1.0  0.09207  0.17703  0.55796  1.0000
  C   C183      1.0  0.05370  0.18223  0.36168  1.0000
  H   H135      1.0  0.04277  0.19489  0.36676  1.0000
  C   C184      1.0  0.95209  0.83247  0.35994  1.0000
  C   C185      1.0  0.94068  0.82726  0.43992  1.0000
  C   C186      1.0  0.92407  0.81058  0.43447  1.0000
  H   H136      1.0  0.91671  0.80589  0.49355  1.0000
  C   C187      1.0  0.94589  0.83738  0.53187  1.0000
  H   H137      1.0  0.95847  0.85043  0.53076  1.0000
  H   H138      1.0  0.94960  0.82171  0.57765  1.0000
  H   H139      1.0  0.93317  0.84764  0.56006  1.0000
  C   C188      1.0  0.97136  0.84268  0.36319  1.0000
  H   H140      1.0  0.98231  0.83003  0.36773  1.0000
  C   C189      1.0  0.91822  0.22495  0.36686  1.0000
  C   C190      1.0  0.93052  0.21861  0.44298  1.0000
  C   C191      1.0  0.94480  0.19882  0.43459  1.0000
  H   H141      1.0  0.95326  0.19416  0.49048  1.0000
  C   C192      1.0  0.92912  0.23147  0.53345  1.0000
  H   H142      1.0  0.91742  0.24578  0.53667  1.0000
  H   H143      1.0  0.94323  0.24076  0.54906  1.0000
  H   H144      1.0  0.92601  0.21745  0.58654  1.0000
  C   C193      1.0  0.90541  0.24601  0.36682  1.0000
  H   H145      1.0  0.91167  0.26296  0.37527  1.0000
  C   C194      1.0  0.10683  0.80002  0.36647  1.0000
  C   C195      1.0  0.09449  0.80634  0.44247  1.0000
  C   C196      1.0  0.08021  0.82612  0.43405  1.0000
  H   H146      1.0  0.07173  0.83076  0.48988  1.0000
  C   C197      1.0  0.09585  0.79343  0.53289  1.0000
  H   H147      1.0  0.10755  0.77912  0.53614  1.0000
  H   H148      1.0  0.08173  0.78413  0.54831  1.0000
  H   H149      1.0  0.09894  0.80743  0.58608  1.0000
  C   C198      1.0  0.11962  0.77895  0.36636  1.0000
  H   H150      1.0  0.11335  0.76200  0.37453  1.0000
  C   C199      1.0  0.57298  0.69238  0.35678  1.0000
  C   C200      1.0  0.58444  0.69762  0.43659  1.0000
  C   C201      1.0  0.60102  0.71433  0.43100  1.0000
  H   H151      1.0  0.60842  0.71899  0.48997  1.0000
  C   C202      1.0  0.57929  0.68748  0.52859  1.0000
  H   H152      1.0  0.56673  0.67439  0.52759  1.0000
  H   H153      1.0  0.57558  0.70313  0.57442  1.0000
  H   H154      1.0  0.59204  0.67724  0.55662  1.0000
  C   C203      1.0  0.55370  0.68223  0.36020  1.0000
  H   H155      1.0  0.54277  0.69490  0.36490  1.0000
  C   C204      1.0  0.45208  0.33248  0.35830  1.0000
  C   C205      1.0  0.44067  0.32718  0.43821  1.0000
  C   C206      1.0  0.42406  0.31051  0.43251  1.0000
  H   H156      1.0  0.41670  0.30576  0.49152  1.0000
  C   C207      1.0  0.44588  0.33719  0.53032  1.0000
  H   H157      1.0  0.45847  0.35024  0.52942  1.0000
  H   H158      1.0  0.44959  0.32146  0.57584  1.0000
  H   H159      1.0  0.43316  0.34741  0.55868  1.0000
  C   C208      1.0  0.47134  0.34268  0.36172  1.0000
  H   H160      1.0  0.48230  0.33002  0.36602  1.0000
  C   C209      1.0  0.41820  0.72492  0.36920  1.0000
  C   C210      1.0  0.43050  0.71851  0.44523  1.0000
  C   C211      1.0  0.44478  0.69873  0.43662  1.0000
  H   H161      1.0  0.45324  0.69402  0.49247  1.0000
  C   C212      1.0  0.42910  0.73131  0.53582  1.0000
  H   H162      1.0  0.41741  0.74562  0.53914  1.0000
  H   H163      1.0  0.44322  0.74058  0.55153  1.0000
  H   H164      1.0  0.42598  0.71725  0.58876  1.0000
  C   C213      1.0  0.40541  0.74599  0.36928  1.0000
  H   H165      1.0  0.41169  0.76294  0.37730  1.0000
  C   C214      1.0  0.60682  0.30005  0.36882  1.0000
  C   C215      1.0  0.59448  0.30642  0.44475  1.0000
  C   C216      1.0  0.58021  0.32621  0.43610  1.0000
  H   H166      1.0  0.57172  0.33089  0.49188  1.0000
  C   C217      1.0  0.59584  0.29358  0.53528  1.0000
  H   H167      1.0  0.60753  0.27926  0.53863  1.0000
  H   H168      1.0  0.58171  0.28430  0.55080  1.0000
  H   H169      1.0  0.59893  0.30761  0.58833  1.0000
  C   C218      1.0  0.61961  0.27897  0.36886  1.0000
  H   H170      1.0  0.61332  0.26202  0.37672  1.0000
  C   C219      1.0  0.39607  0.10203  0.35894  1.0000
  C   C220      1.0  0.38887  0.11492  0.43783  1.0000
  C   C221      1.0  0.38315  0.14078  0.43058  1.0000
  H   H171      1.0  0.37900  0.15029  0.48872  1.0000
  C   C222      1.0  0.38791  0.10305  0.53012  1.0000
  H   H172      1.0  0.39213  0.08307  0.53020  1.0000
  H   H173      1.0  0.37273  0.10429  0.55639  1.0000
  H   H174      1.0  0.39784  0.11311  0.57679  1.0000
  C   C223      1.0  0.40680  0.07947  0.36431  1.0000
  H   H175      1.0  0.42143  0.08135  0.37279  1.0000
  C   C224      1.0  0.62898  0.92297  0.36098  1.0000
  C   C225      1.0  0.63618  0.91001  0.43970  1.0000
  C   C226      1.0  0.64186  0.88414  0.43216  1.0000
  H   H176      1.0  0.64604  0.87458  0.49014  1.0000
  C   C227      1.0  0.63717  0.92181  0.53207  1.0000
  H   H177      1.0  0.63297  0.94180  0.53232  1.0000
  H   H178      1.0  0.65235  0.92053  0.55828  1.0000
  H   H179      1.0  0.62724  0.91174  0.57871  1.0000
  C   C228      1.0  0.61824  0.94552  0.36649  1.0000
  H   H180      1.0  0.60361  0.94363  0.37499  1.0000
  C   C229      1.0  0.64118  0.15502  0.37123  1.0000
  C   C230      1.0  0.63438  0.14056  0.44734  1.0000
  C   C231      1.0  0.62930  0.11467  0.43466  1.0000
  H   H181      1.0  0.62327  0.10484  0.48851  1.0000
  C   C232      1.0  0.63152  0.15137  0.54053  1.0000
  H   H182      1.0  0.63648  0.17100  0.54648  1.0000
  H   H183      1.0  0.63996  0.14023  0.59011  1.0000
  H   H184      1.0  0.61577  0.15064  0.55886  1.0000
  C   C233      1.0  0.64251  0.18144  0.37383  1.0000
  H   H185      1.0  0.63015  0.19107  0.38807  1.0000
  C   C234      1.0  0.38388  0.86992  0.37184  1.0000
  C   C235      1.0  0.39069  0.88431  0.44814  1.0000
  C   C236      1.0  0.39574  0.91022  0.43578  1.0000
  H   H186      1.0  0.40182  0.91997  0.48974  1.0000
  C   C237      1.0  0.39360  0.87340  0.54115  1.0000
  H   H187      1.0  0.38866  0.85376  0.54688  1.0000
  H   H188      1.0  0.38517  0.88447  0.59097  1.0000
  H   H189      1.0  0.40935  0.87413  0.55936  1.0000
  C   C238      1.0  0.38254  0.84351  0.37422  1.0000
  H   H190      1.0  0.39491  0.83386  0.38821  1.0000
  C   C239      1.0  0.89606  0.60202  0.36025  1.0000
  C   C240      1.0  0.88894  0.61488  0.43935  1.0000
  C   C241      1.0  0.88322  0.64075  0.43233  1.0000
  H   H191      1.0  0.87912  0.65023  0.49059  1.0000
  C   C242      1.0  0.88806  0.60298  0.53159  1.0000
  H   H192      1.0  0.89227  0.58299  0.53149  1.0000
  H   H193      1.0  0.87291  0.60422  0.55819  1.0000
  H   H194      1.0  0.89804  0.61301  0.57812  1.0000
  C   C243      1.0  0.90679  0.57946  0.36533  1.0000
  H   H195      1.0  0.92141  0.58134  0.37407  1.0000
  C   C244      1.0  0.12901  0.42300  0.36231  1.0000
  C   C245      1.0  0.13613  0.41006  0.44122  1.0000
  C   C246      1.0  0.14181  0.38418  0.43387  1.0000
  H   H196      1.0  0.14594  0.37463  0.49196  1.0000
  C   C247      1.0  0.13704  0.42188  0.53357  1.0000
  H   H197      1.0  0.13286  0.44188  0.53366  1.0000
  H   H198      1.0  0.15220  0.42059  0.56008  1.0000
  H   H199      1.0  0.12706  0.41184  0.58004  1.0000
  C   C248      1.0  0.11827  0.44555  0.36759  1.0000
  H   H200      1.0  0.10365  0.44367  0.37641  1.0000
  C   C249      1.0  0.14119  0.65500  0.36954  1.0000
  C   C250      1.0  0.13444  0.64059  0.44584  1.0000
  C   C251      1.0  0.12934  0.61469  0.43343  1.0000
  H   H201      1.0  0.12333  0.60490  0.48744  1.0000
  C   C252      1.0  0.13162  0.65146  0.53897  1.0000
  H   H202      1.0  0.13658  0.67110  0.54466  1.0000
  H   H203      1.0  0.14010  0.64037  0.58855  1.0000
  H   H204      1.0  0.11589  0.65073  0.55750  1.0000
  C   C253      1.0  0.14250  0.68142  0.37189  1.0000
  H   H205      1.0  0.13009  0.69104  0.38537  1.0000
  C   C254      1.0  0.88388  0.36992  0.37016  1.0000
  C   C255      1.0  0.89063  0.38427  0.44664  1.0000
  C   C256      1.0  0.89569  0.41019  0.43451  1.0000
  H   H206      1.0  0.90172  0.41992  0.48860  1.0000
  C   C257      1.0  0.89349  0.37332  0.53961  1.0000
  H   H207      1.0  0.88857  0.35366  0.54512  1.0000
  H   H208      1.0  0.88501  0.38434  0.58938  1.0000
  H   H209      1.0  0.90923  0.37406  0.55806  1.0000
  C   C258      1.0  0.88256  0.34351  0.37234  1.0000
  H   H210      1.0  0.89496  0.33386  0.38565  1.0000
  C   C259      1.0  0.53306  0.00599  0.36711  1.0000
  C   C260      1.0  0.52046  0.00322  0.44458  1.0000
  C   C261      1.0  0.50013  0.00984  0.43625  1.0000
  H   H211      1.0  0.49107  0.00811  0.49239  1.0000
  C   C262      1.0  0.52735  0.99409  0.53560  1.0000
  H   H212      1.0  0.54324  0.98991  0.53797  1.0000
  H   H213      1.0  0.51935  0.97678  0.55386  1.0000
  H   H214      1.0  0.52433  0.00853  0.58729  1.0000
  C   C263      1.0  0.55297  0.99922  0.36843  1.0000
  H   H215      1.0  0.55651  0.98102  0.37667  1.0000
  C   C264      1.0  0.03306  0.50600  0.36742  1.0000
  C   C265      1.0  0.02046  0.50322  0.44487  1.0000
  C   C266      1.0  0.00013  0.50985  0.43656  1.0000
  H   H216      1.0  0.99107  0.50811  0.49268  1.0000
  C   C267      1.0  0.02735  0.49408  0.53590  1.0000
  H   H217      1.0  0.04323  0.48990  0.53826  1.0000
  H   H218      1.0  0.01935  0.47678  0.55412  1.0000
  H   H219      1.0  0.02432  0.50852  0.58760  1.0000
  C   C268      1.0  0.05297  0.49922  0.36875  1.0000
  H   H220      1.0  0.05651  0.48103  0.37700  1.0000
  C   C269      1.0  0.24192  0.27038  0.35970  1.0000
  C   C270      1.0  0.25055  0.25884  0.43831  1.0000
  C   C271      1.0  0.27075  0.25091  0.43535  1.0000
  H   H221      1.0  0.27670  0.24231  0.49204  1.0000
  C   C272      1.0  0.23966  0.25481  0.52580  1.0000
  H   H222      1.0  0.22442  0.26181  0.52464  1.0000
  H   H223      1.0  0.24742  0.26459  0.58113  1.0000
  H   H224      1.0  0.23916  0.23455  0.54145  1.0000
  C   C273      1.0  0.22274  0.28081  0.35782  1.0000
  H   H225      1.0  0.22178  0.29959  0.35216  1.0000
  C   C274      1.0  0.78307  0.75456  0.35967  1.0000
  C   C275      1.0  0.77446  0.76615  0.43824  1.0000
  C   C276      1.0  0.75427  0.77409  0.43531  1.0000
  H   H226      1.0  0.74833  0.78271  0.49199  1.0000
  C   C277      1.0  0.78536  0.77020  0.52570  1.0000
  H   H227      1.0  0.80060  0.76316  0.52457  1.0000
  H   H228      1.0  0.77760  0.76047  0.58109  1.0000
  H   H229      1.0  0.78589  0.79047  0.54121  1.0000
  C   C278      1.0  0.80226  0.74417  0.35772  1.0000
  H   H230      1.0  0.80323  0.72539  0.35185  1.0000
  C   C279      1.0  0.74183  0.25506  0.35888  1.0000
  C   C280      1.0  0.75060  0.26634  0.43766  1.0000
  C   C281      1.0  0.77090  0.27383  0.43481  1.0000
  H   H231      1.0  0.77696  0.28225  0.49160  1.0000
  C   C282      1.0  0.73976  0.27052  0.52518  1.0000
  H   H232      1.0  0.72442  0.26387  0.52388  1.0000
  H   H233      1.0  0.73954  0.29077  0.54112  1.0000
  H   H234      1.0  0.74737  0.26050  0.58039  1.0000
  C   C283      1.0  0.72255  0.24494  0.35708  1.0000
  H   H235      1.0  0.72147  0.22615  0.35232  1.0000
  C   C284      1.0  0.28320  0.76990  0.35897  1.0000
  C   C285      1.0  0.27442  0.75861  0.43772  1.0000
  C   C286      1.0  0.25412  0.75111  0.43481  1.0000
  H   H236      1.0  0.24806  0.74267  0.49157  1.0000
  C   C287      1.0  0.28525  0.75443  0.52526  1.0000
  H   H237      1.0  0.30059  0.76109  0.52399  1.0000
  H   H238      1.0  0.28548  0.73418  0.54118  1.0000
  H   H239      1.0  0.27763  0.76444  0.58046  1.0000
  C   C288      1.0  0.30247  0.78003  0.35721  1.0000
  H   H240      1.0  0.30355  0.79882  0.35251  1.0000
