data_image0
_chemical_formula_structural       C2HCHC5H2C2NC2H3NC2H3C3NCNC2H3CH3CNCNCNCNCNCNHCH2C2HC6H3C4H2C2HCHNC2H2CNC2HC2HCHC2HC6H3C5H2C2HC6H3C2HC6H3C2HC6H3C2NCNC2H3CH3C2NCNC2H3CH3C2NCNC2H3CH3C2NCNC2H3CH3C2NCNC2H3CH3C5H2C2HC6H3C2HC6H3C2HCHC2HC6H3C2HC6H3CNCNCNCNCNCNCNCNCNCNCNCNCNCNCNCNCNCNCNCNCNCNCNCNCNCNCNCNCNCNC2NC2H3C2NCNC2H3CH3NC2H3C2NCNC2H3CH3C2NCNC2H3CH3C2NCNC2H3CH3C2HC6H3C2HC6H3C2HC6H3C2HC6H3C2HC6H3NC2H3C2NCNC2H3CH3C2NCNC2H3CH3C2NC2H3C2NCNC2H3CH3C2NCNC2H3CH3
_chemical_formula_sum              "C288 H180 N72"
_cell_length_a       59.081
_cell_length_b       59.0811
_cell_length_c       14.8905
_cell_angle_alpha    90
_cell_angle_beta     90
_cell_angle_gamma    120

_space_group_name_H-M_alt    "P 1"
_space_group_IT_number       1

loop_
  _space_group_symop_operation_xyz
  'x, y, z'

loop_
  _atom_site_type_symbol
  _atom_site_label
  _atom_site_symmetry_multiplicity
  _atom_site_fract_x
  _atom_site_fract_y
  _atom_site_fract_z
  _atom_site_occupancy
  C   C1        1.0  0.03731  0.40387  0.25753  1.0000
  C   C2        1.0  0.06489  0.41904  0.25994  1.0000
  H   H1        1.0  0.07499  0.42590  0.20089  1.0000
  C   C3        1.0  0.02331  0.39743  0.17584  1.0000
  H   H2        1.0  0.03300  0.40323  0.11581  1.0000
  C   C4        1.0  0.02352  0.64160  0.33989  1.0000
  C   C5        1.0  0.07875  0.66650  0.34196  1.0000
  C   C6        1.0  0.06500  0.65994  0.25959  1.0000
  C   C7        1.0  0.03742  0.64756  0.25738  1.0000
  C   C8        1.0  0.02337  0.63997  0.17579  1.0000
  H   H3        1.0  0.03304  0.64387  0.11569  1.0000
  H   H4        1.0  0.07509  0.66311  0.20056  1.0000
  C   C9        1.0  0.07865  0.42623  0.34234  1.0000
  C   C10       1.0  0.06381  0.41783  0.42300  1.0000
  N   N1        1.0  0.03726  0.40328  0.41777  1.0000
  C   C11       1.0  0.02338  0.39595  0.33993  1.0000
  C   C12       1.0  0.07491  0.42460  0.51472  1.0000
  H   H5        1.0  0.09621  0.43581  0.51511  1.0000
  H   H6        1.0  0.06882  0.40670  0.55295  1.0000
  H   H7        1.0  0.06764  0.43610  0.54847  1.0000
  N   N2        1.0  0.03742  0.64823  0.41773  1.0000
  C   C13       1.0  0.06398  0.66019  0.42266  1.0000
  C   C14       1.0  0.07606  0.66504  0.51287  1.0000
  H   H8        1.0  0.06139  0.65903  0.56588  1.0000
  H   H9        1.0  0.08996  0.68585  0.52104  1.0000
  H   H10       1.0  0.08632  0.65411  0.52102  1.0000
  C   C15       1.0  0.17270  0.45807  0.34176  1.0000
  C   C16       1.0  0.13907  0.51708  0.33807  1.0000
  C   C17       1.0  0.13971  0.53023  0.25741  1.0000
  N   N3        1.0  0.14062  0.55364  0.26323  1.0000
  C   C18       1.0  0.14097  0.56562  0.34153  1.0000
  N   N4        1.0  0.14072  0.60130  0.26367  1.0000
  C   C19       1.0  0.13986  0.62385  0.25857  1.0000
  C   C20       1.0  0.13886  0.52027  0.16547  1.0000
  H   H11       1.0  0.13840  0.50159  0.16470  1.0000
  H   H12       1.0  0.15611  0.53438  0.12828  1.0000
  H   H13       1.0  0.12145  0.51774  0.13089  1.0000
  C   C21       1.0  0.13901  0.63392  0.16835  1.0000
  H   H14       1.0  0.13980  0.62155  0.11535  1.0000
  H   H15       1.0  0.15563  0.65361  0.15997  1.0000
  H   H16       1.0  0.12095  0.63451  0.16042  1.0000
  C   C22       1.0  0.10523  0.44611  0.34120  1.0000
  N   N5        1.0  0.12569  0.44152  0.34177  1.0000
  C   C23       1.0  0.15083  0.46186  0.34081  1.0000
  N   N6        1.0  0.15526  0.48678  0.33946  1.0000
  C   C24       1.0  0.13504  0.49152  0.33889  1.0000
  N   N7        1.0  0.11023  0.47115  0.33987  1.0000
  C   C25       1.0  0.10537  0.67333  0.34148  1.0000
  N   N8        1.0  0.12580  0.69839  0.34240  1.0000
  C   C26       1.0  0.15096  0.70325  0.34201  1.0000
  N   N9        1.0  0.15545  0.68280  0.34091  1.0000
  C   C27       1.0  0.13525  0.65781  0.33993  1.0000
  N   N10       1.0  0.11043  0.65333  0.34032  1.0000
  H   H17       1.0  0.15516  0.44133  0.52048  1.0000
  C   C28       1.0  0.17279  0.72891  0.34322  1.0000
  H   H18       1.0  0.15771  0.71354  0.51611  1.0000
  H   H19       1.0  0.17299  0.74632  0.55269  1.0000
  C   C29       1.0  0.14039  0.55323  0.42387  1.0000
  C   C30       1.0  0.13943  0.52889  0.42098  1.0000
  H   H20       1.0  0.13831  0.51938  0.47988  1.0000
  C   C31       1.0  0.14101  0.58955  0.34177  1.0000
  C   C32       1.0  0.13925  0.63625  0.33942  1.0000
  C   C33       1.0  0.13955  0.62468  0.42209  1.0000
  C   C34       1.0  0.14045  0.60126  0.42440  1.0000
  C   C35       1.0  0.14013  0.58895  0.50603  1.0000
  C   C36       1.0  0.14011  0.56513  0.50576  1.0000
  H   H21       1.0  0.13958  0.59704  0.56622  1.0000
  H   H22       1.0  0.13953  0.55639  0.56577  1.0000
  H   H23       1.0  0.13843  0.63301  0.48113  1.0000
  C   C37       1.0  0.21993  0.45669  0.34048  1.0000
  C   C38       1.0  0.18475  0.45818  0.25961  1.0000
  C   C39       1.0  0.20830  0.45740  0.25780  1.0000
  C   C40       1.0  0.22076  0.45789  0.17634  1.0000
  H   H24       1.0  0.21276  0.45854  0.11609  1.0000
  H   H25       1.0  0.17657  0.45936  0.20035  1.0000
  C   C41       1.0  0.20828  0.76507  0.25836  1.0000
  C   C42       1.0  0.18471  0.74079  0.26080  1.0000
  H   H26       1.0  0.17643  0.73137  0.20169  1.0000
  C   C43       1.0  0.22064  0.77691  0.17661  1.0000
  H   H27       1.0  0.21251  0.76818  0.11656  1.0000
  N   N11       1.0  0.20782  0.45674  0.41811  1.0000
  C   C44       1.0  0.18512  0.45743  0.42265  1.0000
  C   C45       1.0  0.17481  0.45806  0.51263  1.0000
  H   H28       1.0  0.18712  0.45730  0.56590  1.0000
  H   H29       1.0  0.17404  0.47603  0.52065  1.0000
  C   C46       1.0  0.18537  0.74208  0.42389  1.0000
  N   N12       1.0  0.20808  0.76544  0.41859  1.0000
  C   C47       1.0  0.22008  0.77752  0.34073  1.0000
  C   C48       1.0  0.17603  0.73211  0.51565  1.0000
  H   H30       1.0  0.19074  0.72940  0.55060  1.0000
  C   C49       1.0  0.25639  0.45732  0.25840  1.0000
  C   C50       1.0  0.28067  0.45803  0.26085  1.0000
  H   H31       1.0  0.29009  0.45917  0.20174  1.0000
  C   C51       1.0  0.24455  0.45784  0.17664  1.0000
  H   H32       1.0  0.25330  0.45847  0.11660  1.0000
  C   C52       1.0  0.56415  0.81316  0.25840  1.0000
  C   C53       1.0  0.56344  0.83674  0.26083  1.0000
  H   H33       1.0  0.56228  0.84501  0.20172  1.0000
  C   C54       1.0  0.56478  0.77735  0.34050  1.0000
  C   C55       1.0  0.56341  0.72873  0.34180  1.0000
  C   C56       1.0  0.56330  0.74067  0.25965  1.0000
  C   C57       1.0  0.56407  0.76499  0.25783  1.0000
  C   C58       1.0  0.56358  0.77697  0.17635  1.0000
  C   C59       1.0  0.56363  0.80080  0.17664  1.0000
  H   H34       1.0  0.56293  0.76831  0.11611  1.0000
  H   H35       1.0  0.56301  0.80892  0.11660  1.0000
  H   H36       1.0  0.56212  0.73131  0.20039  1.0000
  C   C60       1.0  0.24410  0.80152  0.34047  1.0000
  C   C61       1.0  0.29273  0.84874  0.34178  1.0000
  C   C62       1.0  0.28077  0.83671  0.25963  1.0000
  C   C63       1.0  0.25645  0.81316  0.25780  1.0000
  C   C64       1.0  0.24447  0.80070  0.17633  1.0000
  H   H37       1.0  0.25313  0.80872  0.11609  1.0000
  H   H38       1.0  0.29014  0.84490  0.20037  1.0000
  C   C65       1.0  0.76281  0.56636  0.25838  1.0000
  C   C66       1.0  0.73853  0.56565  0.26083  1.0000
  H   H39       1.0  0.72911  0.56451  0.20173  1.0000
  C   C67       1.0  0.79927  0.56700  0.34046  1.0000
  C   C68       1.0  0.84649  0.56560  0.34173  1.0000
  C   C69       1.0  0.83446  0.56552  0.25958  1.0000
  C   C70       1.0  0.81091  0.56629  0.25778  1.0000
  C   C71       1.0  0.79844  0.56580  0.17631  1.0000
  C   C72       1.0  0.77465  0.56584  0.17661  1.0000
  H   H40       1.0  0.80646  0.56516  0.11607  1.0000
  H   H41       1.0  0.76591  0.56523  0.11658  1.0000
  H   H42       1.0  0.84264  0.56433  0.20032  1.0000
  C   C73       1.0  0.45507  0.21053  0.25842  1.0000
  C   C74       1.0  0.45577  0.18695  0.26088  1.0000
  H   H43       1.0  0.45691  0.17867  0.20179  1.0000
  C   C75       1.0  0.45444  0.24635  0.34048  1.0000
  C   C76       1.0  0.45584  0.29498  0.34173  1.0000
  C   C77       1.0  0.45593  0.28302  0.25959  1.0000
  C   C78       1.0  0.45516  0.25870  0.25779  1.0000
  C   C79       1.0  0.45564  0.24671  0.17633  1.0000
  C   C80       1.0  0.45558  0.22288  0.17664  1.0000
  H   H44       1.0  0.45629  0.25538  0.11609  1.0000
  H   H45       1.0  0.45621  0.21476  0.11661  1.0000
  H   H46       1.0  0.45711  0.29239  0.20032  1.0000
  C   C81       1.0  0.81090  0.25861  0.25838  1.0000
  C   C82       1.0  0.83447  0.28289  0.26081  1.0000
  H   H47       1.0  0.84274  0.29232  0.20170  1.0000
  C   C83       1.0  0.77509  0.22216  0.34048  1.0000
  C   C84       1.0  0.72647  0.17491  0.34179  1.0000
  C   C85       1.0  0.73842  0.18697  0.25965  1.0000
  C   C86       1.0  0.76273  0.21051  0.25781  1.0000
  C   C87       1.0  0.77471  0.22298  0.17634  1.0000
  C   C88       1.0  0.79854  0.24677  0.17662  1.0000
  H   H48       1.0  0.76605  0.21497  0.11611  1.0000
  H   H49       1.0  0.80666  0.25551  0.11658  1.0000
  H   H50       1.0  0.72905  0.17878  0.20039  1.0000
  C   C89       1.0  0.50434  0.63611  0.33805  1.0000
  C   C90       1.0  0.49121  0.62358  0.25740  1.0000
  N   N13       1.0  0.46780  0.60107  0.26322  1.0000
  C   C91       1.0  0.45582  0.58944  0.34152  1.0000
  N   N14       1.0  0.42014  0.55351  0.26366  1.0000
  C   C92       1.0  0.39759  0.53010  0.25856  1.0000
  C   C93       1.0  0.50117  0.63269  0.16547  1.0000
  H   H51       1.0  0.51983  0.65092  0.16471  1.0000
  H   H52       1.0  0.48705  0.63581  0.12824  1.0000
  H   H53       1.0  0.50372  0.61783  0.13092  1.0000
  C   C94       1.0  0.38753  0.51918  0.16833  1.0000
  H   H54       1.0  0.39991  0.53234  0.11535  1.0000
  H   H55       1.0  0.36785  0.51613  0.15993  1.0000
  H   H56       1.0  0.38694  0.50053  0.16044  1.0000
  C   C95       1.0  0.38534  0.88233  0.33811  1.0000
  C   C96       1.0  0.39787  0.88172  0.25746  1.0000
  N   N15       1.0  0.42038  0.88083  0.26325  1.0000
  C   C97       1.0  0.43201  0.88048  0.34155  1.0000
  N   N16       1.0  0.46794  0.88072  0.26366  1.0000
  C   C98       1.0  0.49134  0.88158  0.25855  1.0000
  C   C99       1.0  0.38876  0.88258  0.16552  1.0000
  H   H57       1.0  0.37053  0.88302  0.16477  1.0000
  H   H58       1.0  0.38564  0.86534  0.12829  1.0000
  H   H59       1.0  0.40363  0.90000  0.13098  1.0000
  C   C100      1.0  0.50227  0.88244  0.16833  1.0000
  H   H60       1.0  0.48911  0.88167  0.11534  1.0000
  H   H61       1.0  0.50532  0.86581  0.15992  1.0000
  H   H62       1.0  0.52092  0.90050  0.16044  1.0000
  C   C101      1.0  0.88015  0.50662  0.33806  1.0000
  C   C102      1.0  0.87950  0.49347  0.25740  1.0000
  N   N17       1.0  0.87859  0.47005  0.26322  1.0000
  C   C103      1.0  0.87824  0.45807  0.34152  1.0000
  N   N18       1.0  0.87848  0.42239  0.26366  1.0000
  C   C104      1.0  0.87934  0.39984  0.25857  1.0000
  C   C105      1.0  0.88036  0.50343  0.16546  1.0000
  H   H63       1.0  0.88082  0.52211  0.16469  1.0000
  H   H64       1.0  0.86310  0.48932  0.12827  1.0000
  H   H65       1.0  0.89776  0.50595  0.13087  1.0000
  C   C106      1.0  0.88020  0.38978  0.16835  1.0000
  H   H66       1.0  0.87942  0.40215  0.11535  1.0000
  H   H67       1.0  0.86357  0.37009  0.15994  1.0000
  H   H68       1.0  0.89826  0.38918  0.16044  1.0000
  C   C107      1.0  0.51483  0.38762  0.33808  1.0000
  C   C108      1.0  0.52798  0.40012  0.25742  1.0000
  N   N19       1.0  0.55140  0.42263  0.26323  1.0000
  C   C109      1.0  0.56337  0.43426  0.34153  1.0000
  N   N20       1.0  0.59906  0.47019  0.26367  1.0000
  C   C110      1.0  0.62160  0.49360  0.25857  1.0000
  C   C111      1.0  0.51802  0.39102  0.16548  1.0000
  H   H69       1.0  0.49935  0.37280  0.16471  1.0000
  H   H70       1.0  0.53213  0.38787  0.12829  1.0000
  H   H71       1.0  0.51549  0.40589  0.13089  1.0000
  C   C112      1.0  0.63167  0.50452  0.16835  1.0000
  H   H72       1.0  0.61930  0.49136  0.11535  1.0000
  H   H73       1.0  0.65136  0.50758  0.15997  1.0000
  H   H74       1.0  0.63226  0.52317  0.16042  1.0000
  C   C113      1.0  0.63386  0.14137  0.33807  1.0000
  C   C114      1.0  0.62133  0.14196  0.25742  1.0000
  N   N21       1.0  0.59882  0.14287  0.26325  1.0000
  C   C115      1.0  0.58720  0.14322  0.34155  1.0000
  N   N22       1.0  0.55126  0.14297  0.26370  1.0000
  C   C116      1.0  0.52785  0.14211  0.25862  1.0000
  C   C117      1.0  0.63044  0.14111  0.16548  1.0000
  H   H75       1.0  0.64867  0.14068  0.16472  1.0000
  H   H76       1.0  0.63356  0.15835  0.12826  1.0000
  H   H77       1.0  0.61557  0.12369  0.13093  1.0000
  C   C118      1.0  0.51693  0.14125  0.16840  1.0000
  H   H78       1.0  0.53008  0.14203  0.11540  1.0000
  H   H79       1.0  0.51387  0.15788  0.15999  1.0000
  H   H80       1.0  0.49827  0.12319  0.16050  1.0000
  C   C119      1.0  0.99567  0.38210  0.33988  1.0000
  C   C120      1.0  0.94043  0.35716  0.34196  1.0000
  C   C121      1.0  0.95420  0.36377  0.25961  1.0000
  C   C122      1.0  0.98178  0.37614  0.25738  1.0000
  C   C123      1.0  0.99582  0.38372  0.17578  1.0000
  H   H81       1.0  0.98615  0.37985  0.11569  1.0000
  H   H82       1.0  0.94410  0.36059  0.20058  1.0000
  C   C124      1.0  0.61759  0.64755  0.25746  1.0000
  C   C125      1.0  0.60242  0.65996  0.25983  1.0000
  H   H83       1.0  0.59552  0.66317  0.20080  1.0000
  C   C126      1.0  0.63936  0.62768  0.33985  1.0000
  C   C127      1.0  0.66429  0.59737  0.34197  1.0000
  C   C128      1.0  0.65769  0.60453  0.25962  1.0000
  C   C129      1.0  0.64532  0.61974  0.25736  1.0000
  C   C130      1.0  0.63774  0.62620  0.17575  1.0000
  C   C131      1.0  0.62403  0.63997  0.17580  1.0000
  H   H84       1.0  0.64163  0.62042  0.11567  1.0000
  H   H85       1.0  0.61826  0.64390  0.11575  1.0000
  H   H86       1.0  0.66088  0.59763  0.20058  1.0000
  C   C132      1.0  0.37387  0.98412  0.25742  1.0000
  C   C133      1.0  0.36146  0.95654  0.25982  1.0000
  H   H87       1.0  0.35822  0.94643  0.20079  1.0000
  C   C134      1.0  0.39376  0.02576  0.33977  1.0000
  C   C135      1.0  0.42412  0.08099  0.34183  1.0000
  C   C136      1.0  0.41692  0.06723  0.25949  1.0000
  C   C137      1.0  0.40169  0.03966  0.25726  1.0000
  C   C138      1.0  0.39521  0.02561  0.17567  1.0000
  C   C139      1.0  0.38143  0.99812  0.17574  1.0000
  H   H88       1.0  0.40097  0.03528  0.11557  1.0000
  H   H89       1.0  0.37748  0.98842  0.11570  1.0000
  H   H90       1.0  0.42380  0.07733  0.20045  1.0000
  C   C140      1.0  0.98188  0.61983  0.25755  1.0000
  C   C141      1.0  0.95430  0.60467  0.25997  1.0000
  H   H91       1.0  0.94419  0.59780  0.20094  1.0000
  C   C142      1.0  0.99588  0.62626  0.17587  1.0000
  H   H92       1.0  0.98618  0.62050  0.11583  1.0000
  C   C143      1.0  0.40161  0.37614  0.25753  1.0000
  C   C144      1.0  0.41678  0.36374  0.25995  1.0000
  H   H93       1.0  0.42364  0.36049  0.20090  1.0000
  C   C145      1.0  0.37984  0.39602  0.33987  1.0000
  C   C146      1.0  0.35496  0.42635  0.34195  1.0000
  C   C147      1.0  0.36153  0.41918  0.25958  1.0000
  C   C148      1.0  0.37390  0.40396  0.25736  1.0000
  C   C149      1.0  0.38147  0.39750  0.17577  1.0000
  C   C150      1.0  0.39517  0.38371  0.17584  1.0000
  H   H94       1.0  0.37760  0.40329  0.11568  1.0000
  H   H95       1.0  0.40097  0.37981  0.11581  1.0000
  H   H96       1.0  0.35835  0.42609  0.20054  1.0000
  C   C151      1.0  0.64531  0.03955  0.25745  1.0000
  C   C152      1.0  0.65772  0.06713  0.25983  1.0000
  H   H97       1.0  0.66092  0.07724  0.20080  1.0000
  C   C153      1.0  0.62544  0.99792  0.33985  1.0000
  C   C154      1.0  0.59510  0.94269  0.34196  1.0000
  C   C155      1.0  0.60228  0.95644  0.25958  1.0000
  C   C156      1.0  0.61749  0.98402  0.25734  1.0000
  C   C157      1.0  0.62395  0.99805  0.17574  1.0000
  C   C158      1.0  0.63774  0.02554  0.17579  1.0000
  H   H98       1.0  0.61818  0.98838  0.11565  1.0000
  H   H99       1.0  0.64166  0.03524  0.11574  1.0000
  H   H100      1.0  0.59537  0.94634  0.20055  1.0000
  C   C159      1.0  0.57531  0.67317  0.34121  1.0000
  N   N23       1.0  0.57992  0.69823  0.34179  1.0000
  C   C160      1.0  0.55960  0.70307  0.34087  1.0000
  N   N24       1.0  0.53468  0.68260  0.33952  1.0000
  C   C161      1.0  0.52990  0.65762  0.33893  1.0000
  N   N25       1.0  0.55026  0.65315  0.33987  1.0000
  C   C162      1.0  0.34825  0.91621  0.34125  1.0000
  N   N26       1.0  0.32320  0.89576  0.34180  1.0000
  C   C163      1.0  0.31837  0.87061  0.34089  1.0000
  N   N27       1.0  0.33885  0.86617  0.33955  1.0000
  C   C164      1.0  0.36383  0.88638  0.33899  1.0000
  N   N28       1.0  0.36828  0.91120  0.33993  1.0000
  C   C165      1.0  0.91398  0.57759  0.34122  1.0000
  N   N29       1.0  0.89351  0.58217  0.34178  1.0000
  C   C166      1.0  0.86837  0.56183  0.34079  1.0000
  N   N30       1.0  0.86394  0.53691  0.33944  1.0000
  C   C167      1.0  0.88417  0.53217  0.33889  1.0000
  N   N31       1.0  0.90899  0.55255  0.33989  1.0000
  C   C168      1.0  0.44387  0.35048  0.34120  1.0000
  N   N32       1.0  0.43928  0.32544  0.34177  1.0000
  C   C169      1.0  0.45962  0.32063  0.34081  1.0000
  N   N33       1.0  0.48453  0.34112  0.33945  1.0000
  C   C170      1.0  0.48928  0.36609  0.33890  1.0000
  N   N34       1.0  0.46891  0.37053  0.33989  1.0000
  C   C171      1.0  0.67092  0.10746  0.34121  1.0000
  N   N35       1.0  0.69598  0.12790  0.34179  1.0000
  C   C172      1.0  0.70082  0.15306  0.34087  1.0000
  N   N36       1.0  0.68035  0.15751  0.33952  1.0000
  C   C173      1.0  0.65537  0.13731  0.33894  1.0000
  N   N37       1.0  0.65090  0.11248  0.33988  1.0000
  C   C174      1.0  0.44390  0.10762  0.34149  1.0000
  N   N38       1.0  0.43925  0.12804  0.34243  1.0000
  C   C175      1.0  0.45955  0.15321  0.34210  1.0000
  N   N39       1.0  0.48449  0.15770  0.34101  1.0000
  C   C176      1.0  0.48929  0.13752  0.33999  1.0000
  N   N40       1.0  0.46896  0.11269  0.34032  1.0000
  C   C177      1.0  0.67110  0.57756  0.34150  1.0000
  N   N41       1.0  0.69616  0.58220  0.34243  1.0000
  C   C178      1.0  0.70101  0.56188  0.34203  1.0000
  N   N42       1.0  0.68055  0.53694  0.34092  1.0000
  C   C179      1.0  0.65557  0.53216  0.33993  1.0000
  N   N43       1.0  0.65110  0.55251  0.34032  1.0000
  C   C180      1.0  0.91381  0.35035  0.34148  1.0000
  N   N44       1.0  0.89338  0.32528  0.34241  1.0000
  C   C181      1.0  0.86822  0.32043  0.34202  1.0000
  N   N45       1.0  0.86374  0.34089  0.34091  1.0000
  C   C182      1.0  0.88393  0.36587  0.33993  1.0000
  N   N46       1.0  0.90875  0.37035  0.34031  1.0000
  C   C183      1.0  0.57531  0.91607  0.34150  1.0000
  N   N47       1.0  0.57995  0.89565  0.34243  1.0000
  C   C184      1.0  0.55965  0.87048  0.34205  1.0000
  N   N48       1.0  0.53470  0.86599  0.34093  1.0000
  C   C185      1.0  0.52991  0.88618  0.33994  1.0000
  N   N49       1.0  0.55025  0.91100  0.34032  1.0000
  C   C186      1.0  0.34812  0.44614  0.34148  1.0000
  N   N50       1.0  0.32305  0.44150  0.34243  1.0000
  C   C187      1.0  0.31819  0.46180  0.34205  1.0000
  N   N51       1.0  0.33864  0.48674  0.34093  1.0000
  C   C188      1.0  0.36363  0.49154  0.33992  1.0000
  N   N52       1.0  0.36811  0.47120  0.34030  1.0000
  C   C189      1.0  0.29252  0.45795  0.34328  1.0000
  C   C190      1.0  0.27936  0.45738  0.42394  1.0000
  N   N53       1.0  0.25600  0.45674  0.41862  1.0000
  C   C191      1.0  0.24393  0.45666  0.34075  1.0000
  C   C192      1.0  0.28932  0.45801  0.51570  1.0000
  H   H101      1.0  0.30789  0.45826  0.51616  1.0000
  H   H102      1.0  0.27512  0.44077  0.55275  1.0000
  H   H103      1.0  0.29205  0.47544  0.55064  1.0000
  C   C193      1.0  0.56349  0.84866  0.34325  1.0000
  C   C194      1.0  0.56407  0.83607  0.42392  1.0000
  N   N54       1.0  0.56472  0.81336  0.41861  1.0000
  C   C195      1.0  0.56480  0.80137  0.34075  1.0000
  N   N55       1.0  0.56473  0.76518  0.41813  1.0000
  C   C196      1.0  0.56403  0.74179  0.42268  1.0000
  C   C197      1.0  0.56344  0.84540  0.51568  1.0000
  H   H104      1.0  0.56318  0.86373  0.51614  1.0000
  H   H105      1.0  0.58068  0.84845  0.55273  1.0000
  H   H106      1.0  0.54601  0.83070  0.55063  1.0000
  C   C198      1.0  0.56340  0.73085  0.51267  1.0000
  H   H107      1.0  0.56416  0.74392  0.56592  1.0000
  H   H108      1.0  0.58014  0.72794  0.52054  1.0000
  H   H109      1.0  0.54544  0.71211  0.52068  1.0000
  N   N56       1.0  0.25626  0.81363  0.41811  1.0000
  C   C199      1.0  0.27965  0.83633  0.42267  1.0000
  C   C200      1.0  0.29058  0.84664  0.51267  1.0000
  H   H110      1.0  0.27750  0.83433  0.56592  1.0000
  H   H111      1.0  0.29350  0.86629  0.52050  1.0000
  H   H112      1.0  0.30931  0.84740  0.52072  1.0000
  C   C201      1.0  0.72667  0.56572  0.34326  1.0000
  C   C202      1.0  0.73984  0.56628  0.42393  1.0000
  N   N57       1.0  0.76319  0.56693  0.41860  1.0000
  C   C203      1.0  0.77526  0.56701  0.34073  1.0000
  N   N58       1.0  0.81138  0.56694  0.41809  1.0000
  C   C204      1.0  0.83408  0.56625  0.42263  1.0000
  C   C205      1.0  0.72988  0.56567  0.51569  1.0000
  H   H113      1.0  0.71130  0.56542  0.51615  1.0000
  H   H114      1.0  0.74408  0.58291  0.55271  1.0000
  H   H115      1.0  0.72715  0.54824  0.55066  1.0000
  C   C206      1.0  0.84440  0.56563  0.51261  1.0000
  H   H116      1.0  0.83209  0.56639  0.56588  1.0000
  H   H117      1.0  0.86405  0.58237  0.52044  1.0000
  H   H118      1.0  0.84517  0.54767  0.52065  1.0000
  C   C207      1.0  0.45570  0.17502  0.34332  1.0000
  C   C208      1.0  0.45513  0.18762  0.42397  1.0000
  N   N59       1.0  0.45449  0.21034  0.41863  1.0000
  C   C209      1.0  0.45442  0.22233  0.34076  1.0000
  N   N60       1.0  0.45449  0.25852  0.41810  1.0000
  C   C210      1.0  0.45519  0.28192  0.42262  1.0000
  C   C211      1.0  0.45576  0.17829  0.51574  1.0000
  H   H119      1.0  0.45600  0.15996  0.51621  1.0000
  H   H120      1.0  0.43852  0.17526  0.55279  1.0000
  H   H121      1.0  0.47319  0.19300  0.55068  1.0000
  C   C212      1.0  0.45582  0.29286  0.51261  1.0000
  H   H122      1.0  0.45506  0.27979  0.56587  1.0000
  H   H123      1.0  0.43908  0.29577  0.52044  1.0000
  H   H124      1.0  0.47378  0.31159  0.52063  1.0000
  C   C213      1.0  0.84639  0.29477  0.34323  1.0000
  C   C214      1.0  0.83381  0.28160  0.42390  1.0000
  N   N61       1.0  0.81110  0.25824  0.41859  1.0000
  C   C215      1.0  0.79911  0.24616  0.34074  1.0000
  N   N62       1.0  0.76293  0.21005  0.41812  1.0000
  C   C216      1.0  0.73954  0.18735  0.42267  1.0000
  C   C217      1.0  0.84314  0.29157  0.51566  1.0000
  H   H125      1.0  0.86147  0.31015  0.51612  1.0000
  H   H126      1.0  0.84619  0.27737  0.55270  1.0000
  H   H127      1.0  0.82844  0.29428  0.55062  1.0000
  C   C218      1.0  0.72860  0.17704  0.51267  1.0000
  H   H128      1.0  0.74167  0.18936  0.56592  1.0000
  H   H129      1.0  0.72569  0.15740  0.52054  1.0000
  H   H130      1.0  0.70986  0.17627  0.52068  1.0000
  C   C219      1.0  0.46820  0.60125  0.42386  1.0000
  C   C220      1.0  0.49254  0.62465  0.42097  1.0000
  H   H131      1.0  0.50205  0.63303  0.47987  1.0000
  C   C221      1.0  0.43189  0.56556  0.34175  1.0000
  C   C222      1.0  0.38517  0.51710  0.33941  1.0000
  C   C223      1.0  0.39675  0.52897  0.42207  1.0000
  C   C224      1.0  0.42018  0.55329  0.42439  1.0000
  C   C225      1.0  0.43249  0.56528  0.50602  1.0000
  C   C226      1.0  0.45631  0.58907  0.50576  1.0000
  H   H132      1.0  0.42440  0.55664  0.56621  1.0000
  H   H133      1.0  0.46504  0.59724  0.56576  1.0000
  H   H134      1.0  0.38844  0.51952  0.48111  1.0000
  C   C227      1.0  0.42021  0.88106  0.42389  1.0000
  C   C228      1.0  0.39682  0.88201  0.42101  1.0000
  H   H135      1.0  0.38843  0.88312  0.47992  1.0000
  C   C229      1.0  0.45590  0.88043  0.34177  1.0000
  C   C230      1.0  0.50435  0.88216  0.33940  1.0000
  C   C231      1.0  0.49249  0.88189  0.42207  1.0000
  C   C232      1.0  0.46817  0.88100  0.42440  1.0000
  C   C233      1.0  0.45618  0.88131  0.50603  1.0000
  C   C234      1.0  0.43239  0.88134  0.50578  1.0000
  H   H136      1.0  0.46484  0.88189  0.56621  1.0000
  H   H137      1.0  0.42424  0.88194  0.56579  1.0000
  H   H138      1.0  0.50194  0.88301  0.48111  1.0000
  C   C235      1.0  0.87882  0.47046  0.42386  1.0000
  C   C236      1.0  0.87978  0.49481  0.42097  1.0000
  H   H139      1.0  0.88092  0.50432  0.47988  1.0000
  C   C237      1.0  0.87819  0.43414  0.34176  1.0000
  C   C238      1.0  0.87993  0.38743  0.33942  1.0000
  C   C239      1.0  0.87965  0.39901  0.42208  1.0000
  C   C240      1.0  0.87875  0.42244  0.42440  1.0000
  C   C241      1.0  0.87908  0.43475  0.50603  1.0000
  C   C242      1.0  0.87911  0.45857  0.50576  1.0000
  H   H140      1.0  0.87964  0.42667  0.56621  1.0000
  H   H141      1.0  0.87969  0.46731  0.56576  1.0000
  H   H142      1.0  0.88077  0.39069  0.48112  1.0000
  C   C243      1.0  0.55099  0.42246  0.42387  1.0000
  C   C244      1.0  0.52664  0.39907  0.42099  1.0000
  H   H143      1.0  0.51714  0.39068  0.47989  1.0000
  C   C245      1.0  0.58730  0.45815  0.34177  1.0000
  C   C246      1.0  0.63401  0.50661  0.33942  1.0000
  C   C247      1.0  0.62243  0.49474  0.42209  1.0000
  C   C248      1.0  0.59901  0.47042  0.42440  1.0000
  C   C249      1.0  0.58670  0.45842  0.50603  1.0000
  C   C250      1.0  0.56288  0.43463  0.50577  1.0000
  H   H144      1.0  0.59479  0.46707  0.56622  1.0000
  H   H145      1.0  0.55415  0.42647  0.56577  1.0000
  H   H146      1.0  0.63076  0.50418  0.48113  1.0000
  C   C251      1.0  0.59901  0.14264  0.42388  1.0000
  C   C252      1.0  0.62239  0.14170  0.42098  1.0000
  H   H147      1.0  0.63078  0.14058  0.47988  1.0000
  C   C253      1.0  0.56331  0.14327  0.34179  1.0000
  C   C254      1.0  0.51485  0.14153  0.33947  1.0000
  C   C255      1.0  0.52673  0.14183  0.42213  1.0000
  C   C256      1.0  0.55105  0.14271  0.42443  1.0000
  C   C257      1.0  0.56304  0.14239  0.50606  1.0000
  C   C258      1.0  0.58683  0.14236  0.50578  1.0000
  H   H148      1.0  0.55440  0.14184  0.56625  1.0000
  H   H149      1.0  0.59499  0.14179  0.56578  1.0000
  H   H150      1.0  0.51728  0.14069  0.48117  1.0000
  N   N63       1.0  0.98178  0.37547  0.41771  1.0000
  C   C259      1.0  0.95521  0.36350  0.42262  1.0000
  C   C260      1.0  0.94314  0.35866  0.51285  1.0000
  H   H151      1.0  0.95782  0.36469  0.56585  1.0000
  H   H152      1.0  0.92925  0.33785  0.52107  1.0000
  H   H153      1.0  0.93288  0.36959  0.52096  1.0000
  C   C261      1.0  0.59516  0.66644  0.34225  1.0000
  C   C262      1.0  0.60360  0.66007  0.42297  1.0000
  N   N64       1.0  0.61817  0.64808  0.41773  1.0000
  C   C263      1.0  0.62550  0.64153  0.33988  1.0000
  N   N65       1.0  0.64598  0.62041  0.41770  1.0000
  C   C264      1.0  0.65795  0.60582  0.42263  1.0000
  C   C265      1.0  0.59683  0.66440  0.51470  1.0000
  H   H154      1.0  0.58559  0.67446  0.51507  1.0000
  H   H155      1.0  0.61473  0.67624  0.55286  1.0000
  H   H156      1.0  0.58536  0.64563  0.54849  1.0000
  C   C266      1.0  0.66278  0.59859  0.51286  1.0000
  H   H157      1.0  0.65675  0.60724  0.56586  1.0000
  H   H158      1.0  0.68359  0.60550  0.52110  1.0000
  H   H159      1.0  0.65185  0.57739  0.52098  1.0000
  C   C267      1.0  0.35498  0.94280  0.34224  1.0000
  C   C268      1.0  0.36138  0.95762  0.42294  1.0000
  N   N66       1.0  0.37337  0.98418  0.41768  1.0000
  C   C269      1.0  0.37992  0.99805  0.33983  1.0000
  N   N67       1.0  0.40105  0.03966  0.41761  1.0000
  C   C270      1.0  0.41565  0.06622  0.42254  1.0000
  C   C271      1.0  0.35704  0.94653  0.51468  1.0000
  H   H160      1.0  0.34697  0.92523  0.51509  1.0000
  H   H161      1.0  0.34522  0.95261  0.55285  1.0000
  H   H162      1.0  0.37582  0.95382  0.54844  1.0000
  C   C272      1.0  0.42287  0.07829  0.51276  1.0000
  H   H163      1.0  0.41420  0.06361  0.56576  1.0000
  H   H164      1.0  0.41597  0.09220  0.52095  1.0000
  H   H165      1.0  0.44407  0.08854  0.52092  1.0000
  C   C273      1.0  0.94056  0.59748  0.34240  1.0000
  C   C274      1.0  0.95539  0.60586  0.42307  1.0000
  N   N68       1.0  0.98194  0.62042  0.41782  1.0000
  C   C275      1.0  0.99582  0.62774  0.33995  1.0000
  C   C276      1.0  0.94428  0.59911  0.51478  1.0000
  H   H166      1.0  0.92298  0.58790  0.51515  1.0000
  H   H167      1.0  0.95037  0.61701  0.55297  1.0000
  H   H168      1.0  0.95155  0.58761  0.54856  1.0000
  C   C277      1.0  0.42398  0.35717  0.34234  1.0000
  C   C278      1.0  0.41558  0.36361  0.42301  1.0000
  N   N69       1.0  0.40103  0.37561  0.41777  1.0000
  C   C279      1.0  0.39370  0.38216  0.33993  1.0000
  N   N70       1.0  0.37322  0.40328  0.41772  1.0000
  C   C280      1.0  0.36125  0.41789  0.42264  1.0000
  C   C281      1.0  0.42235  0.35928  0.51473  1.0000
  H   H169      1.0  0.43356  0.34920  0.51512  1.0000
  H   H170      1.0  0.40445  0.34747  0.55296  1.0000
  H   H171      1.0  0.43385  0.37806  0.54847  1.0000
  C   C282      1.0  0.35640  0.42511  0.51286  1.0000
  H   H172      1.0  0.36241  0.41645  0.56587  1.0000
  H   H173      1.0  0.33560  0.41821  0.52104  1.0000
  H   H174      1.0  0.36735  0.44631  0.52101  1.0000
  C   C283      1.0  0.66419  0.08087  0.34225  1.0000
  C   C284      1.0  0.65782  0.06606  0.42297  1.0000
  N   N71       1.0  0.64584  0.03950  0.41772  1.0000
  C   C285      1.0  0.63929  0.02562  0.33987  1.0000
  N   N72       1.0  0.61816  0.98403  0.41769  1.0000
  C   C286      1.0  0.60356  0.95747  0.42264  1.0000
  C   C287      1.0  0.66215  0.07716  0.51469  1.0000
  H   H175      1.0  0.67221  0.09846  0.51507  1.0000
  H   H176      1.0  0.67399  0.07110  0.55287  1.0000
  H   H177      1.0  0.64338  0.06986  0.54848  1.0000
  C   C288      1.0  0.59633  0.94539  0.51287  1.0000
  H   H178      1.0  0.60500  0.96007  0.56587  1.0000
  H   H179      1.0  0.60324  0.93149  0.52107  1.0000
  H   H180      1.0  0.57514  0.93514  0.52101  1.0000
