data_image0
_chemical_formula_structural       C5H3CH3C2H2C2H2C2H2C5H3CH3C5H3CH3C5H3CH3C5H3CH3C2H2C2H2C5H3CH3C5H3CH3C2H2C2H2C5H3CH3C5H3CH3C2H2C2H2C5H3CH3C5H3CH3C2H2C2H2C2H2C5H3CH3C6H3C6H3C6H3C6H3C6H3C6H3C6H3C6H3C6H3C6H3C6H3C6H3C6H3C6H3C6H3C6H3C2H2C5H3CH3C5H3CH3C5H3CH3C2H2C2H2C2H2C2H2C5H3CH3C5H3CH3C2H2C2H2C5H3CH3C5H3CH3C2H2C2H2C5H3CH3C5H3CH3C2H2C2H2C5H3CH3C5H3CH3C5H3CH3C2H2
_chemical_formula_sum              "C288 H240"
_cell_length_a       54.9128
_cell_length_b       28.3118
_cell_length_c       14.8238
_cell_angle_alpha    90
_cell_angle_beta     90
_cell_angle_gamma    90

_space_group_name_H-M_alt    "P 1"
_space_group_IT_number       1

loop_
  _space_group_symop_operation_xyz
  'x, y, z'

loop_
  _atom_site_type_symbol
  _atom_site_label
  _atom_site_symmetry_multiplicity
  _atom_site_fract_x
  _atom_site_fract_y
  _atom_site_fract_z
  _atom_site_occupancy
  C   C1        1.0  0.51943  0.54923  0.33406  1.0000
  C   C2        1.0  0.49230  0.46277  0.33913  1.0000
  C   C3        1.0  0.49382  0.48906  0.25698  1.0000
  C   C4        1.0  0.50738  0.53254  0.25457  1.0000
  C   C5        1.0  0.48168  0.47126  0.17299  1.0000
  H   H1        1.0  0.47152  0.43858  0.18169  1.0000
  H   H2        1.0  0.49531  0.46448  0.12106  1.0000
  H   H3        1.0  0.46879  0.49754  0.14817  1.0000
  C   C6        1.0  0.50935  0.55966  0.16795  1.0000
  H   H4        1.0  0.52135  0.59021  0.17136  1.0000
  H   H5        1.0  0.49139  0.57229  0.14773  1.0000
  H   H6        1.0  0.51668  0.53711  0.11488  1.0000
  C   C7        1.0  0.99404  0.02219  0.27673  1.0000
  C   C8        1.0  0.00713  0.97966  0.27454  1.0000
  H   H7        1.0  0.00754  0.96101  0.21531  1.0000
  H   H8        1.0  0.98599  0.03374  0.21839  1.0000
  C   C9        1.0  0.40625  0.35897  0.28784  1.0000
  C   C10       1.0  0.38175  0.34466  0.28709  1.0000
  H   H9        1.0  0.37201  0.34886  0.22868  1.0000
  H   H10       1.0  0.41351  0.37266  0.22977  1.0000
  C   C11       1.0  0.60566  0.65265  0.28761  1.0000
  C   C12       1.0  0.63015  0.66702  0.28701  1.0000
  H   H11       1.0  0.63991  0.66289  0.22863  1.0000
  H   H12       1.0  0.59844  0.63901  0.22945  1.0000
  C   C13       1.0  0.09084  0.85251  0.32569  1.0000
  C   C14       1.0  0.14097  0.82298  0.32749  1.0000
  C   C15       1.0  0.12664  0.81734  0.24757  1.0000
  C   C16       1.0  0.10153  0.83204  0.24676  1.0000
  C   C17       1.0  0.13777  0.79676  0.16395  1.0000
  H   H13       1.0  0.15699  0.78796  0.17003  1.0000
  H   H14       1.0  0.13642  0.82192  0.10849  1.0000
  H   H15       1.0  0.12823  0.76437  0.14548  1.0000
  C   C18       1.0  0.08670  0.82645  0.16245  1.0000
  H   H16       1.0  0.06825  0.84030  0.16715  1.0000
  H   H17       1.0  0.08525  0.78909  0.14511  1.0000
  H   H18       1.0  0.09533  0.84528  0.10682  1.0000
  C   C19       1.0  0.92105  0.15900  0.32598  1.0000
  C   C20       1.0  0.87095  0.18869  0.32749  1.0000
  C   C21       1.0  0.88530  0.19424  0.24762  1.0000
  C   C22       1.0  0.91040  0.17944  0.24695  1.0000
  C   C23       1.0  0.87422  0.21486  0.16395  1.0000
  H   H19       1.0  0.85501  0.22378  0.16998  1.0000
  H   H20       1.0  0.87553  0.18966  0.10854  1.0000
  H   H21       1.0  0.88382  0.24717  0.14543  1.0000
  C   C24       1.0  0.92525  0.18488  0.16264  1.0000
  H   H22       1.0  0.94366  0.17084  0.16738  1.0000
  H   H23       1.0  0.92678  0.22221  0.14524  1.0000
  H   H24       1.0  0.91658  0.16610  0.10703  1.0000
  C   C25       1.0  0.53657  0.21224  0.33952  1.0000
  C   C26       1.0  0.50484  0.29174  0.33774  1.0000
  C   C27       1.0  0.51624  0.27687  0.25585  1.0000
  C   C28       1.0  0.53214  0.23656  0.25670  1.0000
  C   C29       1.0  0.51101  0.30176  0.16869  1.0000
  H   H25       1.0  0.49807  0.33075  0.17421  1.0000
  H   H26       1.0  0.50333  0.27699  0.12002  1.0000
  H   H27       1.0  0.52782  0.31648  0.14136  1.0000
  C   C30       1.0  0.54341  0.21950  0.17054  1.0000
  H   H28       1.0  0.55571  0.18963  0.17865  1.0000
  H   H29       1.0  0.55406  0.24777  0.13986  1.0000
  H   H30       1.0  0.52920  0.20850  0.12360  1.0000
  C   C31       1.0  0.47529  0.79962  0.34072  1.0000
  C   C32       1.0  0.50713  0.72033  0.33814  1.0000
  C   C33       1.0  0.49593  0.73570  0.25620  1.0000
  C   C34       1.0  0.47994  0.77584  0.25748  1.0000
  C   C35       1.0  0.50147  0.71152  0.16857  1.0000
  H   H31       1.0  0.51467  0.68299  0.17370  1.0000
  H   H32       1.0  0.50898  0.73679  0.12052  1.0000
  H   H33       1.0  0.48482  0.69639  0.14069  1.0000
  C   C36       1.0  0.46880  0.79333  0.17136  1.0000
  H   H34       1.0  0.45630  0.82283  0.17984  1.0000
  H   H35       1.0  0.45841  0.76507  0.13944  1.0000
  H   H36       1.0  0.48308  0.80503  0.12533  1.0000
  C   C37       1.0  0.98655  0.72824  0.27098  1.0000
  C   C38       1.0  0.00205  0.76745  0.27176  1.0000
  H   H37       1.0  0.01016  0.77746  0.21246  1.0000
  H   H38       1.0  0.98434  0.71022  0.21155  1.0000
  C   C39       1.0  0.02550  0.28323  0.26982  1.0000
  C   C40       1.0  0.00996  0.24406  0.27098  1.0000
  H   H39       1.0  0.00198  0.23372  0.21166  1.0000
  H   H40       1.0  0.02785  0.30092  0.21011  1.0000
  C   C41       1.0  0.30598  0.09010  0.32994  1.0000
  C   C42       1.0  0.31178  0.19140  0.33229  1.0000
  C   C43       1.0  0.31707  0.16516  0.25211  1.0000
  C   C44       1.0  0.31420  0.11455  0.25102  1.0000
  C   C45       1.0  0.32557  0.19025  0.16872  1.0000
  H   H41       1.0  0.32660  0.22849  0.17517  1.0000
  H   H42       1.0  0.31306  0.18331  0.11315  1.0000
  H   H43       1.0  0.34370  0.17785  0.15023  1.0000
  C   C46       1.0  0.31974  0.08744  0.16652  1.0000
  H   H44       1.0  0.31598  0.04975  0.17094  1.0000
  H   H45       1.0  0.33896  0.09138  0.14935  1.0000
  H   H46       1.0  0.30868  0.10066  0.11090  1.0000
  C   C47       1.0  0.70588  0.92169  0.33004  1.0000
  C   C48       1.0  0.70006  0.82037  0.33240  1.0000
  C   C49       1.0  0.69476  0.84663  0.25223  1.0000
  C   C50       1.0  0.69764  0.89724  0.25112  1.0000
  C   C51       1.0  0.68625  0.82154  0.16886  1.0000
  H   H47       1.0  0.68521  0.78330  0.17531  1.0000
  H   H48       1.0  0.69876  0.82846  0.11327  1.0000
  H   H49       1.0  0.66812  0.83396  0.15038  1.0000
  C   C52       1.0  0.69211  0.92434  0.16662  1.0000
  H   H50       1.0  0.69589  0.96203  0.17102  1.0000
  H   H51       1.0  0.67289  0.92043  0.14946  1.0000
  H   H52       1.0  0.70316  0.91110  0.11100  1.0000
  C   C53       1.0  0.21169  0.61713  0.28330  1.0000
  C   C54       1.0  0.20895  0.66655  0.28231  1.0000
  H   H53       1.0  0.21252  0.68422  0.22347  1.0000
  H   H54       1.0  0.21693  0.60067  0.22490  1.0000
  C   C55       1.0  0.80023  0.39464  0.28324  1.0000
  C   C56       1.0  0.80299  0.34522  0.28222  1.0000
  H   H55       1.0  0.79941  0.32756  0.22337  1.0000
  H   H56       1.0  0.79498  0.41109  0.22484  1.0000
  C   C57       1.0  0.24497  0.42949  0.33015  1.0000
  C   C58       1.0  0.28282  0.35881  0.33387  1.0000
  C   C59       1.0  0.26933  0.36713  0.25276  1.0000
  C   C60       1.0  0.25038  0.40238  0.25103  1.0000
  C   C61       1.0  0.27514  0.33999  0.16855  1.0000
  H   H57       1.0  0.29008  0.31500  0.17522  1.0000
  H   H58       1.0  0.28041  0.36423  0.11482  1.0000
  H   H59       1.0  0.25919  0.31994  0.14710  1.0000
  C   C62       1.0  0.23665  0.41136  0.16523  1.0000
  H   H60       1.0  0.22382  0.44057  0.16891  1.0000
  H   H61       1.0  0.22640  0.37985  0.14637  1.0000
  H   H62       1.0  0.24925  0.42027  0.11101  1.0000
  C   C63       1.0  0.76690  0.58228  0.33009  1.0000
  C   C64       1.0  0.72905  0.65297  0.33389  1.0000
  C   C65       1.0  0.74254  0.64467  0.25277  1.0000
  C   C66       1.0  0.76148  0.60942  0.25101  1.0000
  C   C67       1.0  0.73673  0.67183  0.16858  1.0000
  H   H63       1.0  0.72179  0.69681  0.17527  1.0000
  H   H64       1.0  0.73147  0.64761  0.11483  1.0000
  H   H65       1.0  0.75268  0.69188  0.14716  1.0000
  C   C68       1.0  0.77522  0.60047  0.16521  1.0000
  H   H66       1.0  0.78805  0.57126  0.16886  1.0000
  H   H67       1.0  0.78547  0.63198  0.14639  1.0000
  H   H68       1.0  0.76263  0.59157  0.11097  1.0000
  C   C69       1.0  0.25291  0.92128  0.28197  1.0000
  C   C70       1.0  0.23437  0.88704  0.28039  1.0000
  H   H69       1.0  0.22505  0.88202  0.22129  1.0000
  H   H70       1.0  0.25662  0.93935  0.22369  1.0000
  C   C71       1.0  0.75900  0.09046  0.28202  1.0000
  C   C72       1.0  0.77754  0.12471  0.28041  1.0000
  H   H71       1.0  0.78686  0.12971  0.22131  1.0000
  H   H72       1.0  0.75529  0.07238  0.22376  1.0000
  C   C73       1.0  0.10720  0.41050  0.33529  1.0000
  C   C74       1.0  0.15571  0.44679  0.33379  1.0000
  C   C75       1.0  0.14519  0.42909  0.25224  1.0000
  C   C76       1.0  0.12075  0.41081  0.25299  1.0000
  C   C77       1.0  0.15907  0.43117  0.16526  1.0000
  H   H73       1.0  0.17699  0.44728  0.17062  1.0000
  H   H74       1.0  0.14903  0.45197  0.11575  1.0000
  H   H75       1.0  0.16173  0.39553  0.13905  1.0000
  C   C78       1.0  0.10937  0.39379  0.16696  1.0000
  H   H76       1.0  0.09095  0.38020  0.17440  1.0000
  H   H77       1.0  0.12026  0.36522  0.13852  1.0000
  H   H78       1.0  0.10841  0.42267  0.11839  1.0000
  C   C79       1.0  0.90464  0.60148  0.33527  1.0000
  C   C80       1.0  0.85616  0.56505  0.33380  1.0000
  C   C81       1.0  0.86664  0.58288  0.25229  1.0000
  C   C82       1.0  0.89106  0.60125  0.25303  1.0000
  C   C83       1.0  0.85275  0.58083  0.16532  1.0000
  H   H79       1.0  0.83487  0.56457  0.17063  1.0000
  H   H80       1.0  0.86283  0.56018  0.11568  1.0000
  H   H81       1.0  0.85003  0.61648  0.13932  1.0000
  C   C84       1.0  0.90241  0.61849  0.16710  1.0000
  H   H82       1.0  0.92080  0.63226  0.17465  1.0000
  H   H83       1.0  0.89145  0.64701  0.13879  1.0000
  H   H84       1.0  0.90344  0.58969  0.11839  1.0000
  C   C85       1.0  0.39371  0.92778  0.27563  1.0000
  C   C86       1.0  0.36991  0.94546  0.27631  1.0000
  H   H85       1.0  0.36284  0.95837  0.21725  1.0000
  H   H86       1.0  0.40329  0.92895  0.21630  1.0000
  C   C87       1.0  0.61818  0.08407  0.27570  1.0000
  C   C88       1.0  0.64197  0.06633  0.27635  1.0000
  H   H87       1.0  0.64901  0.05332  0.21732  1.0000
  H   H88       1.0  0.60858  0.08281  0.21643  1.0000
  C   C89       1.0  0.01898  0.49524  0.27965  1.0000
  C   C90       1.0  0.00170  0.53144  0.27882  1.0000
  H   H89       1.0  0.99886  0.54949  0.21980  1.0000
  H   H90       1.0  0.02801  0.48756  0.22092  1.0000
  C   C91       1.0  0.48844  0.96932  0.33142  1.0000
  C   C92       1.0  0.52355  0.04245  0.33327  1.0000
  C   C93       1.0  0.51924  0.01720  0.25144  1.0000
  C   C94       1.0  0.50146  0.98009  0.25056  1.0000
  C   C95       1.0  0.53274  0.02953  0.16669  1.0000
  H   H91       1.0  0.54572  0.05831  0.17399  1.0000
  H   H92       1.0  0.51991  0.04033  0.11447  1.0000
  H   H93       1.0  0.54295  0.99889  0.14303  1.0000
  C   C96       1.0  0.49637  0.95377  0.16478  1.0000
  H   H94       1.0  0.48187  0.92767  0.16996  1.0000
  H   H95       1.0  0.51274  0.93515  0.14293  1.0000
  H   H96       1.0  0.49080  0.97837  0.11208  1.0000
  C   C97       1.0  0.48849  0.33066  0.34362  1.0000
  C   C98       1.0  0.46309  0.32347  0.35069  1.0000
  C   C99       1.0  0.44666  0.36196  0.35557  1.0000
  C   C100      1.0  0.45632  0.40848  0.35205  1.0000
  C   C101      1.0  0.48180  0.41657  0.34534  1.0000
  C   C102      1.0  0.49759  0.37722  0.34170  1.0000
  H   H97       1.0  0.44473  0.43675  0.35499  1.0000
  H   H98       1.0  0.51601  0.38248  0.33588  1.0000
  H   H99       1.0  0.45646  0.28962  0.35210  1.0000
  C   C103      1.0  0.52343  0.68132  0.34360  1.0000
  C   C104      1.0  0.54883  0.68831  0.35102  1.0000
  C   C105      1.0  0.56520  0.64971  0.35496  1.0000
  C   C106      1.0  0.55549  0.60327  0.34947  1.0000
  C   C107      1.0  0.53002  0.59535  0.34147  1.0000
  C   C108      1.0  0.51427  0.63483  0.34009  1.0000
  H   H100      1.0  0.56706  0.57493  0.35127  1.0000
  H   H101      1.0  0.49584  0.62972  0.33454  1.0000
  H   H102      1.0  0.55549  0.72212  0.35344  1.0000
  C   C109      1.0  0.02340  0.83064  0.34682  1.0000
  C   C110      1.0  0.04880  0.82346  0.33974  1.0000
  C   C111      1.0  0.06523  0.86194  0.33488  1.0000
  C   C112      1.0  0.05557  0.90846  0.33843  1.0000
  C   C113      1.0  0.03009  0.91655  0.34516  1.0000
  C   C114      1.0  0.01430  0.87721  0.34876  1.0000
  H   H103      1.0  0.06716  0.93673  0.33547  1.0000
  H   H104      1.0  0.99588  0.88248  0.35459  1.0000
  H   H105      1.0  0.05542  0.78960  0.33831  1.0000
  C   C115      1.0  0.98847  0.18130  0.34684  1.0000
  C   C116      1.0  0.96307  0.18830  0.33940  1.0000
  C   C117      1.0  0.94669  0.14970  0.33547  1.0000
  C   C118      1.0  0.95640  0.10326  0.34097  1.0000
  C   C119      1.0  0.98186  0.09534  0.34899  1.0000
  C   C120      1.0  0.99762  0.13481  0.35038  1.0000
  H   H106      1.0  0.94483  0.07493  0.33917  1.0000
  H   H107      1.0  0.01605  0.12970  0.35592  1.0000
  H   H108      1.0  0.95640  0.22211  0.33697  1.0000
  C   C121      1.0  0.34617  0.30693  0.35420  1.0000
  C   C122      1.0  0.34070  0.25804  0.34953  1.0000
  C   C123      1.0  0.31644  0.24128  0.34212  1.0000
  C   C124      1.0  0.29736  0.27508  0.33971  1.0000
  C   C125      1.0  0.30208  0.32443  0.34226  1.0000
  C   C126      1.0  0.32662  0.33951  0.34985  1.0000
  H   H109      1.0  0.27977  0.26361  0.33278  1.0000
  H   H110      1.0  0.33037  0.37495  0.35172  1.0000
  H   H111      1.0  0.35472  0.23414  0.35098  1.0000
  C   C127      1.0  0.66569  0.70481  0.35430  1.0000
  C   C128      1.0  0.67114  0.75371  0.34966  1.0000
  C   C129      1.0  0.69540  0.77049  0.34224  1.0000
  C   C130      1.0  0.71449  0.73670  0.33975  1.0000
  C   C131      1.0  0.70979  0.68734  0.34231  1.0000
  C   C132      1.0  0.68525  0.67225  0.34993  1.0000
  H   H112      1.0  0.73208  0.74818  0.33285  1.0000
  H   H113      1.0  0.68151  0.63680  0.35177  1.0000
  H   H114      1.0  0.65713  0.77759  0.35111  1.0000
  C   C133      1.0  0.16572  0.80692  0.33624  1.0000
  C   C134      1.0  0.17119  0.75803  0.34093  1.0000
  C   C135      1.0  0.19545  0.74128  0.34836  1.0000
  C   C136      1.0  0.21453  0.77508  0.35077  1.0000
  C   C137      1.0  0.20981  0.82444  0.34816  1.0000
  C   C138      1.0  0.18527  0.83950  0.34058  1.0000
  H   H115      1.0  0.23212  0.76362  0.35764  1.0000
  H   H116      1.0  0.18152  0.87495  0.33869  1.0000
  H   H117      1.0  0.15717  0.73413  0.33948  1.0000
  C   C139      1.0  0.84620  0.20480  0.33614  1.0000
  C   C140      1.0  0.84075  0.25370  0.34081  1.0000
  C   C141      1.0  0.81649  0.27048  0.34825  1.0000
  C   C142      1.0  0.79740  0.23669  0.35070  1.0000
  C   C143      1.0  0.80211  0.18733  0.34811  1.0000
  C   C144      1.0  0.82665  0.17224  0.34051  1.0000
  H   H118      1.0  0.77981  0.24817  0.35760  1.0000
  H   H119      1.0  0.83038  0.13679  0.33865  1.0000
  H   H120      1.0  0.85477  0.27758  0.33935  1.0000
  C   C145      1.0  0.03997  0.43109  0.35140  1.0000
  C   C146      1.0  0.03102  0.38449  0.35074  1.0000
  C   C147      1.0  0.04702  0.34558  0.34568  1.0000
  C   C148      1.0  0.07243  0.35383  0.34078  1.0000
  C   C149      1.0  0.08175  0.40054  0.34014  1.0000
  C   C150      1.0  0.06528  0.43885  0.34515  1.0000
  H   H121      1.0  0.08417  0.32577  0.33811  1.0000
  H   H122      1.0  0.07177  0.47282  0.34549  1.0000
  H   H123      1.0  0.01260  0.37887  0.35552  1.0000
  C   C151      1.0  0.97184  0.58071  0.35024  1.0000
  C   C152      1.0  0.98082  0.62728  0.35181  1.0000
  C   C153      1.0  0.96485  0.66626  0.34721  1.0000
  C   C154      1.0  0.93943  0.65808  0.34178  1.0000
  C   C155      1.0  0.93009  0.61139  0.34003  1.0000
  C   C156      1.0  0.94654  0.57301  0.34369  1.0000
  H   H124      1.0  0.92771  0.68618  0.33952  1.0000
  H   H125      1.0  0.94006  0.53904  0.34267  1.0000
  H   H126      1.0  0.99923  0.63283  0.35739  1.0000
  C   C157      1.0  0.47192  0.93110  0.33908  1.0000
  C   C158      1.0  0.48087  0.88449  0.33978  1.0000
  C   C159      1.0  0.46487  0.84559  0.34478  1.0000
  C   C160      1.0  0.43946  0.85384  0.34968  1.0000
  C   C161      1.0  0.43014  0.90055  0.35030  1.0000
  C   C162      1.0  0.44661  0.93886  0.34531  1.0000
  H   H127      1.0  0.42772  0.82578  0.35230  1.0000
  H   H128      1.0  0.44012  0.97284  0.34496  1.0000
  H   H129      1.0  0.49929  0.87887  0.33494  1.0000
  C   C163      1.0  0.54004  0.08073  0.34022  1.0000
  C   C164      1.0  0.53107  0.12730  0.33867  1.0000
  C   C165      1.0  0.54704  0.16628  0.34323  1.0000
  C   C166      1.0  0.57245  0.15809  0.34864  1.0000
  C   C167      1.0  0.58179  0.11141  0.35040  1.0000
  C   C168      1.0  0.56534  0.07302  0.34674  1.0000
  H   H130      1.0  0.58417  0.18619  0.35091  1.0000
  H   H131      1.0  0.57183  0.03905  0.34777  1.0000
  H   H132      1.0  0.51265  0.13285  0.33307  1.0000
  C   C169      1.0  0.17932  0.46783  0.33923  1.0000
  C   C170      1.0  0.18179  0.51738  0.34636  1.0000
  C   C171      1.0  0.20492  0.53942  0.35067  1.0000
  C   C172      1.0  0.22595  0.51018  0.34581  1.0000
  C   C173      1.0  0.22412  0.46017  0.33816  1.0000
  C   C174      1.0  0.20057  0.43976  0.33653  1.0000
  H   H133      1.0  0.24283  0.52550  0.34771  1.0000
  H   H134      1.0  0.19882  0.40381  0.33119  1.0000
  H   H135      1.0  0.16639  0.53784  0.34836  1.0000
  C   C175      1.0  0.83256  0.54399  0.33923  1.0000
  C   C176      1.0  0.83010  0.49443  0.34636  1.0000
  C   C177      1.0  0.80697  0.47237  0.35061  1.0000
  C   C178      1.0  0.78593  0.50160  0.34573  1.0000
  C   C179      1.0  0.78775  0.55160  0.33809  1.0000
  C   C180      1.0  0.81130  0.57204  0.33651  1.0000
  H   H136      1.0  0.76906  0.48626  0.34760  1.0000
  H   H137      1.0  0.81304  0.60799  0.33119  1.0000
  H   H138      1.0  0.84550  0.47399  0.34836  1.0000
  C   C181      1.0  0.33257  0.96785  0.35121  1.0000
  C   C182      1.0  0.33009  0.01740  0.34406  1.0000
  C   C183      1.0  0.30696  0.03942  0.33973  1.0000
  C   C184      1.0  0.28593  0.01016  0.34459  1.0000
  C   C185      1.0  0.28777  0.96016  0.35225  1.0000
  C   C186      1.0  0.31132  0.93976  0.35390  1.0000
  H   H139      1.0  0.26905  0.02548  0.34268  1.0000
  H   H140      1.0  0.31308  0.90382  0.35925  1.0000
  H   H141      1.0  0.34549  0.03786  0.34206  1.0000
  C   C187      1.0  0.67933  0.04398  0.35120  1.0000
  C   C188      1.0  0.68179  0.99443  0.34407  1.0000
  C   C189      1.0  0.70492  0.97237  0.33981  1.0000
  C   C190      1.0  0.72596  0.00161  0.34468  1.0000
  C   C191      1.0  0.72413  0.05161  0.35231  1.0000
  C   C192      1.0  0.70059  0.07204  0.35393  1.0000
  H   H142      1.0  0.74283  0.98627  0.34280  1.0000
  H   H143      1.0  0.69884  0.10799  0.35922  1.0000
  H   H144      1.0  0.66639  0.97398  0.34207  1.0000
  C   C193      1.0  0.51785  0.52221  0.41376  1.0000
  C   C194      1.0  0.50476  0.47968  0.41595  1.0000
  H   H145      1.0  0.50435  0.46103  0.47518  1.0000
  H   H146      1.0  0.52590  0.53377  0.47209  1.0000
  C   C195      1.0  0.99245  0.04922  0.35642  1.0000
  C   C196      1.0  0.01959  0.96276  0.35136  1.0000
  C   C197      1.0  0.01807  0.98905  0.43350  1.0000
  C   C198      1.0  0.00450  0.03252  0.43590  1.0000
  C   C199      1.0  0.03022  0.97125  0.51749  1.0000
  H   H147      1.0  0.04038  0.93858  0.50880  1.0000
  H   H148      1.0  0.01658  0.96447  0.56942  1.0000
  H   H149      1.0  0.04310  0.99755  0.54232  1.0000
  C   C200      1.0  0.00254  0.05965  0.52251  1.0000
  H   H150      1.0  0.99054  0.09019  0.51911  1.0000
  H   H151      1.0  0.02050  0.07228  0.54273  1.0000
  H   H152      1.0  0.99521  0.03710  0.57560  1.0000
  C   C201      1.0  0.42104  0.35254  0.36475  1.0000
  C   C202      1.0  0.37092  0.32299  0.36296  1.0000
  C   C203      1.0  0.38524  0.31736  0.44288  1.0000
  C   C204      1.0  0.41036  0.33206  0.44368  1.0000
  C   C205      1.0  0.37412  0.29678  0.52650  1.0000
  H   H153      1.0  0.35490  0.28798  0.52042  1.0000
  H   H154      1.0  0.37547  0.32194  0.58196  1.0000
  H   H155      1.0  0.38366  0.26439  0.54498  1.0000
  C   C206      1.0  0.42519  0.32647  0.52799  1.0000
  H   H156      1.0  0.44364  0.34033  0.52329  1.0000
  H   H157      1.0  0.42664  0.28912  0.54533  1.0000
  H   H158      1.0  0.41656  0.34530  0.58362  1.0000
  C   C207      1.0  0.59083  0.65900  0.36446  1.0000
  C   C208      1.0  0.64094  0.68870  0.36295  1.0000
  C   C209      1.0  0.62659  0.69424  0.44281  1.0000
  C   C210      1.0  0.60149  0.67944  0.44348  1.0000
  C   C211      1.0  0.63767  0.71485  0.52650  1.0000
  H   H159      1.0  0.65688  0.72378  0.52046  1.0000
  H   H160      1.0  0.63636  0.68965  0.58190  1.0000
  H   H161      1.0  0.62807  0.74717  0.54502  1.0000
  C   C212      1.0  0.58665  0.68487  0.52780  1.0000
  H   H162      1.0  0.56823  0.67084  0.52305  1.0000
  H   H163      1.0  0.58511  0.72220  0.54520  1.0000
  H   H164      1.0  0.59531  0.66609  0.58341  1.0000
  C   C213      1.0  0.10563  0.85896  0.40260  1.0000
  C   C214      1.0  0.13013  0.84465  0.40335  1.0000
  H   H165      1.0  0.13987  0.84884  0.46176  1.0000
  H   H166      1.0  0.09838  0.87265  0.46067  1.0000
  C   C215      1.0  0.90623  0.15264  0.40281  1.0000
  C   C216      1.0  0.88174  0.16701  0.40343  1.0000
  H   H167      1.0  0.87198  0.16288  0.46180  1.0000
  H   H168      1.0  0.91345  0.13901  0.46098  1.0000
  C   C217      1.0  0.52534  0.22826  0.41946  1.0000
  C   C218      1.0  0.50983  0.26747  0.41868  1.0000
  H   H169      1.0  0.50173  0.27747  0.47798  1.0000
  H   H170      1.0  0.52755  0.21024  0.47889  1.0000
  C   C219      1.0  0.48639  0.78323  0.42063  1.0000
  C   C220      1.0  0.50193  0.74407  0.41946  1.0000
  H   H171      1.0  0.50991  0.73372  0.47878  1.0000
  H   H172      1.0  0.48404  0.80092  0.48034  1.0000
  C   C221      1.0  0.97532  0.71222  0.35091  1.0000
  C   C222      1.0  0.00704  0.79173  0.35269  1.0000
  C   C223      1.0  0.99564  0.77685  0.43458  1.0000
  C   C224      1.0  0.97974  0.73655  0.43374  1.0000
  C   C225      1.0  0.00088  0.80174  0.52175  1.0000
  H   H173      1.0  0.01381  0.83074  0.51623  1.0000
  H   H174      1.0  0.00855  0.77697  0.57042  1.0000
  H   H175      1.0  0.98407  0.81647  0.54908  1.0000
  C   C226      1.0  0.96847  0.71949  0.51990  1.0000
  H   H176      1.0  0.95617  0.68962  0.51178  1.0000
  H   H177      1.0  0.95782  0.74777  0.55057  1.0000
  H   H178      1.0  0.98268  0.70849  0.56683  1.0000
  C   C227      1.0  0.03660  0.29961  0.34973  1.0000
  C   C228      1.0  0.00476  0.22031  0.35230  1.0000
  C   C229      1.0  0.01596  0.23569  0.43424  1.0000
  C   C230      1.0  0.03195  0.27583  0.43297  1.0000
  C   C231      1.0  0.01042  0.21150  0.52187  1.0000
  H   H179      1.0  0.99722  0.18297  0.51675  1.0000
  H   H180      1.0  0.00291  0.23677  0.56992  1.0000
  H   H181      1.0  0.02708  0.19638  0.54975  1.0000
  C   C232      1.0  0.04309  0.29331  0.51909  1.0000
  H   H182      1.0  0.05559  0.32282  0.51061  1.0000
  H   H183      1.0  0.05348  0.26505  0.55101  1.0000
  H   H184      1.0  0.02881  0.30502  0.56513  1.0000
  C   C233      1.0  0.30020  0.11712  0.40712  1.0000
  C   C234      1.0  0.30295  0.16655  0.40814  1.0000
  H   H185      1.0  0.29938  0.18420  0.46701  1.0000
  H   H186      1.0  0.29496  0.10066  0.46552  1.0000
  C   C235      1.0  0.71165  0.89466  0.40721  1.0000
  C   C236      1.0  0.70890  0.84524  0.40824  1.0000
  H   H187      1.0  0.71247  0.82758  0.46710  1.0000
  H   H188      1.0  0.71690  0.91112  0.46560  1.0000
  C   C237      1.0  0.20588  0.59010  0.36044  1.0000
  C   C238      1.0  0.20011  0.69141  0.35818  1.0000
  C   C239      1.0  0.19482  0.66514  0.43834  1.0000
  C   C240      1.0  0.19768  0.61453  0.43940  1.0000
  C   C241      1.0  0.18632  0.69022  0.52173  1.0000
  H   H189      1.0  0.18530  0.72847  0.51532  1.0000
  H   H190      1.0  0.19883  0.68327  0.57731  1.0000
  H   H191      1.0  0.16818  0.67784  0.54021  1.0000
  C   C242      1.0  0.19214  0.58742  0.52389  1.0000
  H   H192      1.0  0.19590  0.54973  0.51945  1.0000
  H   H193      1.0  0.17292  0.59137  0.54108  1.0000
  H   H194      1.0  0.20320  0.60062  0.57951  1.0000
  C   C243      1.0  0.80602  0.42168  0.36037  1.0000
  C   C244      1.0  0.81183  0.32036  0.35806  1.0000
  C   C245      1.0  0.81713  0.34663  0.43822  1.0000
  C   C246      1.0  0.81425  0.39724  0.43930  1.0000
  C   C247      1.0  0.82564  0.32156  0.52160  1.0000
  H   H195      1.0  0.82669  0.28331  0.51516  1.0000
  H   H196      1.0  0.81314  0.32847  0.57719  1.0000
  H   H197      1.0  0.84378  0.33398  0.54007  1.0000
  C   C248      1.0  0.81978  0.42435  0.52380  1.0000
  H   H198      1.0  0.81600  0.46203  0.51939  1.0000
  H   H199      1.0  0.83900  0.42044  0.54096  1.0000
  H   H200      1.0  0.80873  0.41111  0.57942  1.0000
  C   C249      1.0  0.25897  0.42128  0.40843  1.0000
  C   C250      1.0  0.27751  0.38703  0.41003  1.0000
  H   H201      1.0  0.28683  0.38200  0.46913  1.0000
  H   H202      1.0  0.25526  0.43934  0.46672  1.0000
  C   C251      1.0  0.75289  0.59046  0.40838  1.0000
  C   C252      1.0  0.73435  0.62472  0.41001  1.0000
  H   H203      1.0  0.72503  0.62973  0.46912  1.0000
  H   H204      1.0  0.75660  0.57238  0.46664  1.0000
  C   C253      1.0  0.26693  0.92946  0.36024  1.0000
  C   C254      1.0  0.22907  0.85881  0.35654  1.0000
  C   C255      1.0  0.24256  0.86714  0.43766  1.0000
  C   C256      1.0  0.26151  0.90238  0.43938  1.0000
  C   C257      1.0  0.23674  0.84001  0.52188  1.0000
  H   H205      1.0  0.22180  0.81503  0.51521  1.0000
  H   H206      1.0  0.23148  0.86425  0.57560  1.0000
  H   H207      1.0  0.25269  0.81995  0.54333  1.0000
  C   C258      1.0  0.27524  0.91136  0.52518  1.0000
  H   H208      1.0  0.28808  0.94056  0.52150  1.0000
  H   H209      1.0  0.28548  0.87984  0.54407  1.0000
  H   H210      1.0  0.26264  0.92029  0.57939  1.0000
  C   C259      1.0  0.74498  0.08231  0.36029  1.0000
  C   C260      1.0  0.78284  0.15296  0.35653  1.0000
  C   C261      1.0  0.76935  0.14466  0.43765  1.0000
  C   C262      1.0  0.75040  0.10941  0.43940  1.0000
  C   C263      1.0  0.77517  0.17181  0.52185  1.0000
  H   H211      1.0  0.79011  0.19679  0.51516  1.0000
  H   H212      1.0  0.78042  0.14758  0.57560  1.0000
  H   H213      1.0  0.75921  0.19188  0.54326  1.0000
  C   C264      1.0  0.73667  0.10046  0.52520  1.0000
  H   H214      1.0  0.72383  0.07126  0.52155  1.0000
  H   H215      1.0  0.72642  0.13198  0.54405  1.0000
  H   H216      1.0  0.74926  0.09155  0.57944  1.0000
  C   C265      1.0  0.11818  0.42774  0.41481  1.0000
  C   C266      1.0  0.14199  0.44543  0.41414  1.0000
  H   H217      1.0  0.14905  0.45833  0.47320  1.0000
  H   H218      1.0  0.10861  0.42891  0.47415  1.0000
  C   C267      1.0  0.89371  0.58407  0.41475  1.0000
  C   C268      1.0  0.86991  0.56634  0.41409  1.0000
  H   H219      1.0  0.86287  0.55333  0.47312  1.0000
  H   H220      1.0  0.90331  0.58281  0.47401  1.0000
  C   C269      1.0  0.40469  0.91052  0.35515  1.0000
  C   C270      1.0  0.35618  0.94682  0.35665  1.0000
  C   C271      1.0  0.36670  0.92911  0.43820  1.0000
  C   C272      1.0  0.39114  0.91083  0.43745  1.0000
  C   C273      1.0  0.35282  0.93119  0.52518  1.0000
  H   H221      1.0  0.33490  0.94730  0.51981  1.0000
  H   H222      1.0  0.36286  0.95198  0.57470  1.0000
  H   H223      1.0  0.35016  0.89555  0.55137  1.0000
  C   C274      1.0  0.40252  0.89380  0.52347  1.0000
  H   H224      1.0  0.42094  0.88021  0.51604  1.0000
  H   H225      1.0  0.39163  0.86522  0.55191  1.0000
  H   H226      1.0  0.40348  0.92267  0.57206  1.0000
  C   C275      1.0  0.60724  0.10150  0.35516  1.0000
  C   C276      1.0  0.65573  0.06505  0.35664  1.0000
  C   C277      1.0  0.64524  0.08288  0.43814  1.0000
  C   C278      1.0  0.62082  0.10125  0.43739  1.0000
  C   C279      1.0  0.65913  0.08081  0.52512  1.0000
  H   H227      1.0  0.67701  0.06455  0.51981  1.0000
  H   H228      1.0  0.64905  0.06017  0.57475  1.0000
  H   H229      1.0  0.66186  0.11647  0.55112  1.0000
  C   C280      1.0  0.60948  0.11850  0.52332  1.0000
  H   H230      1.0  0.59109  0.13228  0.51578  1.0000
  H   H231      1.0  0.62044  0.14700  0.55165  1.0000
  H   H232      1.0  0.60844  0.08969  0.57203  1.0000
  C   C281      1.0  0.02346  0.46932  0.35906  1.0000
  C   C282      1.0  0.98833  0.54243  0.35719  1.0000
  C   C283      1.0  0.99265  0.51719  0.43903  1.0000
  C   C284      1.0  0.01043  0.48008  0.43992  1.0000
  C   C285      1.0  0.97915  0.52951  0.52377  1.0000
  H   H233      1.0  0.96615  0.55829  0.51647  1.0000
  H   H234      1.0  0.99198  0.54033  0.57599  1.0000
  H   H235      1.0  0.96894  0.49887  0.54745  1.0000
  C   C286      1.0  0.01553  0.45377  0.52570  1.0000
  H   H236      1.0  0.03003  0.42769  0.52054  1.0000
  H   H237      1.0  0.99916  0.43515  0.54755  1.0000
  H   H238      1.0  0.02109  0.47838  0.57840  1.0000
  C   C287      1.0  0.49291  0.99525  0.41083  1.0000
  C   C288      1.0  0.51018  0.03145  0.41164  1.0000
  H   H239      1.0  0.51303  0.04951  0.47066  1.0000
  H   H240      1.0  0.48388  0.98757  0.46956  1.0000
