data_image0
_chemical_formula_structural       C2H2NCHCNO2CHC8H6NC2H2C8H6NC2H2C8H6NC2H2C8H6NC2H2C8H6NC2H2C8H6NC2H2C3HNHNC6H2NH2NO2NC6H2NH2NO2NC2HC4HNH2NO2NC2HC4HNH2NO2NC2HC4HNH2NO2NC2HC4HNH2NO2NC2HC4HNH2NO2NC2HC4HNH2NO2NC10H4CNCNHCHCHC10H4CNCNHCHCHC10H4CNCNHCHCHC10H4CNCNHCHCHC10H4CNCNHCHCHC10H4CNCNHCHCHC4H2NO2NC2HC4HNH2NO2NC2HC4HNH2NO2NC6H2NH2NO2NC6H2NH2NO2NC6H2NH2NO2NC6H2NH2NO2NC6H2NH2NO2NC6H2NH2NO2N
_chemical_formula_sum              "C252 H162 N72 O36"
_cell_length_a       91.431
_cell_length_b       91.431
_cell_length_c       14.9857
_cell_angle_alpha    90
_cell_angle_beta     90
_cell_angle_gamma    120

_space_group_name_H-M_alt    "P 1"
_space_group_IT_number       1

loop_
  _space_group_symop_operation_xyz
  'x, y, z'

loop_
  _atom_site_type_symbol
  _atom_site_label
  _atom_site_symmetry_multiplicity
  _atom_site_fract_x
  _atom_site_fract_y
  _atom_site_fract_z
  _atom_site_occupancy
  C   C1        1.0  0.01792  0.50631  0.25438  1.0000
  C   C2        1.0  0.00965  0.50544  0.33555  1.0000
  H   H1        1.0  0.01095  0.50062  0.19838  1.0000
  H   H2        1.0  0.00147  0.52646  0.25982  1.0000
  N   N1        1.0  0.01235  0.51294  0.49381  1.0000
  C   C3        1.0  0.01941  0.51320  0.41337  1.0000
  H   H3        1.0  0.01930  0.51843  0.54596  1.0000
  C   C4        1.0  0.03575  0.51493  0.24823  1.0000
  N   N2        1.0  0.04408  0.51597  0.16685  1.0000
  O   O1        1.0  0.04033  0.50155  0.13884  1.0000
  O   O2        1.0  0.04033  0.52329  0.10773  1.0000
  C   C5        1.0  0.03723  0.52176  0.40650  1.0000
  H   H4        1.0  0.04438  0.52727  0.46218  1.0000
  C   C6        1.0  0.12653  0.56676  0.33422  1.0000
  C   C7        1.0  0.09049  0.55218  0.34131  1.0000
  C   C8        1.0  0.10133  0.56989  0.34171  1.0000
  C   C9        1.0  0.11897  0.57702  0.33782  1.0000
  C   C10       1.0  0.17701  0.62786  0.32650  1.0000
  C   C11       1.0  0.18818  0.64544  0.32075  1.0000
  C   C12       1.0  0.17555  0.53331  0.34031  1.0000
  C   C13       1.0  0.16744  0.54298  0.33768  1.0000
  H   H5        1.0  0.09648  0.57783  0.34576  1.0000
  H   H6        1.0  0.12623  0.58990  0.33934  1.0000
  H   H7        1.0  0.16431  0.62355  0.32486  1.0000
  H   H8        1.0  0.18331  0.65331  0.31451  1.0000
  H   H9        1.0  0.16827  0.52041  0.33920  1.0000
  H   H10       1.0  0.15454  0.53676  0.33480  1.0000
  N   N3        1.0  0.15491  0.59114  0.33313  1.0000
  C   C14       1.0  0.14447  0.57405  0.33389  1.0000
  C   C15       1.0  0.07318  0.54551  0.35065  1.0000
  H   H11       1.0  0.06907  0.55243  0.38157  1.0000
  H   H12       1.0  0.19498  0.51967  0.36913  1.0000
  C   C16       1.0  0.43446  0.56005  0.33422  1.0000
  C   C17       1.0  0.44904  0.53858  0.34130  1.0000
  C   C18       1.0  0.43133  0.53172  0.34169  1.0000
  C   C19       1.0  0.42420  0.54223  0.33783  1.0000
  C   C20       1.0  0.37335  0.54941  0.32640  1.0000
  C   C21       1.0  0.35578  0.54300  0.32064  1.0000
  C   C22       1.0  0.46789  0.64252  0.34031  1.0000
  C   C23       1.0  0.45822  0.62474  0.33768  1.0000
  H   H13       1.0  0.42339  0.51892  0.34570  1.0000
  H   H14       1.0  0.41132  0.53660  0.33930  1.0000
  H   H15       1.0  0.37767  0.54103  0.32445  1.0000
  H   H16       1.0  0.34791  0.53025  0.31404  1.0000
  H   H17       1.0  0.48079  0.64814  0.33921  1.0000
  H   H18       1.0  0.46444  0.61806  0.33480  1.0000
  N   N4        1.0  0.41007  0.56404  0.33317  1.0000
  C   C24       1.0  0.42716  0.57069  0.33388  1.0000
  C   C25       1.0  0.45571  0.52795  0.35060  1.0000
  H   H19       1.0  0.44880  0.51693  0.38152  1.0000
  H   H20       1.0  0.48153  0.67558  0.36903  1.0000
  C   C26       1.0  0.44116  0.87468  0.33425  1.0000
  C   C27       1.0  0.46263  0.91072  0.34131  1.0000
  C   C28       1.0  0.46949  0.89988  0.34173  1.0000
  C   C29       1.0  0.45898  0.88224  0.33784  1.0000
  C   C30       1.0  0.45180  0.82421  0.32647  1.0000
  C   C31       1.0  0.45820  0.81304  0.32071  1.0000
  C   C32       1.0  0.35869  0.82565  0.34030  1.0000
  C   C33       1.0  0.37647  0.83375  0.33768  1.0000
  H   H21       1.0  0.48228  0.90473  0.34578  1.0000
  H   H22       1.0  0.46461  0.87498  0.33938  1.0000
  H   H23       1.0  0.46018  0.83690  0.32470  1.0000
  H   H24       1.0  0.47096  0.81792  0.31430  1.0000
  H   H25       1.0  0.35308  0.83293  0.33914  1.0000
  H   H26       1.0  0.38316  0.84666  0.33476  1.0000
  N   N5        1.0  0.43717  0.84630  0.33314  1.0000
  C   C34       1.0  0.43052  0.85674  0.33391  1.0000
  C   C35       1.0  0.47326  0.92803  0.35062  1.0000
  H   H27       1.0  0.48429  0.93214  0.38153  1.0000
  H   H28       1.0  0.32563  0.80623  0.36897  1.0000
  C   C36       1.0  0.87486  0.43351  0.33638  1.0000
  C   C37       1.0  0.91087  0.44791  0.32566  1.0000
  C   C38       1.0  0.89994  0.43021  0.32671  1.0000
  C   C39       1.0  0.88233  0.42317  0.33218  1.0000
  C   C40       1.0  0.82419  0.37256  0.33321  1.0000
  C   C41       1.0  0.81296  0.35502  0.32605  1.0000
  C   C42       1.0  0.82619  0.46737  0.34596  1.0000
  C   C43       1.0  0.83423  0.45762  0.34480  1.0000
  H   H29       1.0  0.90472  0.42220  0.32339  1.0000
  H   H30       1.0  0.87502  0.41029  0.33238  1.0000
  H   H31       1.0  0.83688  0.37680  0.33262  1.0000
  H   H32       1.0  0.81779  0.34710  0.31987  1.0000
  H   H33       1.0  0.83353  0.48026  0.34460  1.0000
  H   H34       1.0  0.84713  0.46379  0.34261  1.0000
  N   N6        1.0  0.84642  0.40924  0.33948  1.0000
  C   C44       1.0  0.85694  0.42631  0.34012  1.0000
  C   C45       1.0  0.92821  0.45446  0.31809  1.0000
  H   H35       1.0  0.93239  0.44720  0.29215  1.0000
  H   H36       1.0  0.80683  0.48117  0.37200  1.0000
  C   C46       1.0  0.56768  0.44161  0.33643  1.0000
  C   C47       1.0  0.55329  0.46322  0.32567  1.0000
  C   C48       1.0  0.57098  0.47000  0.32674  1.0000
  C   C49       1.0  0.57802  0.45941  0.33222  1.0000
  C   C50       1.0  0.62864  0.45190  0.33313  1.0000
  C   C51       1.0  0.64617  0.45821  0.32582  1.0000
  C   C52       1.0  0.53383  0.35908  0.34598  1.0000
  C   C53       1.0  0.54358  0.37687  0.34484  1.0000
  H   H37       1.0  0.57900  0.48278  0.32342  1.0000
  H   H38       1.0  0.59090  0.46498  0.33245  1.0000
  H   H39       1.0  0.62439  0.46034  0.33252  1.0000
  H   H40       1.0  0.65409  0.47096  0.31955  1.0000
  H   H41       1.0  0.52094  0.35353  0.34456  1.0000
  H   H42       1.0  0.53742  0.38361  0.34261  1.0000
  N   N7        1.0  0.59196  0.43745  0.33958  1.0000
  C   C54       1.0  0.57488  0.43090  0.34020  1.0000
  C   C55       1.0  0.54673  0.47401  0.31809  1.0000
  H   H43       1.0  0.55400  0.48546  0.29213  1.0000
  H   H44       1.0  0.52003  0.32592  0.37195  1.0000
  C   C56       1.0  0.55962  0.12634  0.33637  1.0000
  C   C57       1.0  0.53801  0.09033  0.32562  1.0000
  C   C58       1.0  0.53123  0.10125  0.32669  1.0000
  C   C59       1.0  0.54181  0.11887  0.33216  1.0000
  C   C60       1.0  0.54930  0.17698  0.33303  1.0000
  C   C61       1.0  0.54298  0.18820  0.32569  1.0000
  C   C62       1.0  0.64214  0.17503  0.34597  1.0000
  C   C63       1.0  0.62435  0.16699  0.34480  1.0000
  H   H45       1.0  0.51845  0.09648  0.32340  1.0000
  H   H46       1.0  0.53624  0.12618  0.33241  1.0000
  H   H47       1.0  0.54087  0.16429  0.33214  1.0000
  H   H48       1.0  0.53024  0.18336  0.31909  1.0000
  H   H49       1.0  0.64770  0.16769  0.34458  1.0000
  H   H50       1.0  0.61761  0.15408  0.34260  1.0000
  N   N8        1.0  0.56377  0.15477  0.33956  1.0000
  C   C64       1.0  0.57033  0.14426  0.34013  1.0000
  C   C65       1.0  0.52722  0.07299  0.31806  1.0000
  H   H51       1.0  0.51578  0.06880  0.29207  1.0000
  H   H52       1.0  0.67530  0.19438  0.37184  1.0000
  C   C66       1.0  0.04551  0.52296  0.32484  1.0000
  C   C67       1.0  0.98206  0.50344  0.29937  1.0000
  C   C68       1.0  0.96422  0.49368  0.30302  1.0000
  H   H53       1.0  0.95716  0.49853  0.27703  1.0000
  N   N9        1.0  0.98930  0.51911  0.26217  1.0000
  H   H54       1.0  0.98246  0.52361  0.23809  1.0000
  N   N10       1.0  0.06231  0.53092  0.31974  1.0000
  C   C69       1.0  0.47827  0.52284  0.32483  1.0000
  C   C70       1.0  0.48629  0.52110  0.24820  1.0000
  C   C71       1.0  0.49491  0.51189  0.25434  1.0000
  C   C72       1.0  0.49578  0.50449  0.33552  1.0000
  C   C73       1.0  0.49777  0.47890  0.29935  1.0000
  C   C74       1.0  0.50752  0.47080  0.30302  1.0000
  H   H55       1.0  0.50267  0.45890  0.27703  1.0000
  H   H56       1.0  0.50058  0.51060  0.19834  1.0000
  N   N11       1.0  0.48210  0.47047  0.26213  1.0000
  H   H57       1.0  0.47475  0.47529  0.25976  1.0000
  H   H58       1.0  0.47760  0.45913  0.23805  1.0000
  N   N12       1.0  0.48524  0.52838  0.16681  1.0000
  O   O3        1.0  0.49966  0.53904  0.13874  1.0000
  O   O4        1.0  0.47791  0.51731  0.10772  1.0000
  N   N13       1.0  0.47031  0.53168  0.31972  1.0000
  C   C75       1.0  0.47837  0.95570  0.32486  1.0000
  C   C76       1.0  0.48010  0.96545  0.24824  1.0000
  C   C77       1.0  0.48931  0.98328  0.25439  1.0000
  C   C78       1.0  0.49672  0.99155  0.33557  1.0000
  C   C79       1.0  0.52232  0.01913  0.29943  1.0000
  C   C80       1.0  0.53042  0.03698  0.30310  1.0000
  H   H59       1.0  0.54232  0.04403  0.27713  1.0000
  H   H60       1.0  0.49061  0.99026  0.19840  1.0000
  N   N14       1.0  0.53075  0.01189  0.26221  1.0000
  H   H61       1.0  0.52592  0.99972  0.25982  1.0000
  H   H62       1.0  0.54209  0.01872  0.23814  1.0000
  N   N15       1.0  0.47281  0.95713  0.16686  1.0000
  O   O5        1.0  0.46215  0.96088  0.13883  1.0000
  O   O6        1.0  0.48388  0.96087  0.10774  1.0000
  N   N16       1.0  0.46953  0.93890  0.31975  1.0000
  C   C81       1.0  0.27872  0.52333  0.25899  1.0000
  C   C82       1.0  0.29526  0.52593  0.26791  1.0000
  H   H63       1.0  0.30128  0.52474  0.21308  1.0000
  C   C83       1.0  0.25600  0.52710  0.32804  1.0000
  C   C84       1.0  0.22865  0.53358  0.32326  1.0000
  C   C85       1.0  0.24400  0.54472  0.28000  1.0000
  C   C86       1.0  0.25746  0.54133  0.28274  1.0000
  H   H64       1.0  0.26866  0.54976  0.25319  1.0000
  N   N17       1.0  0.27102  0.51875  0.17792  1.0000
  H   H65       1.0  0.27654  0.51695  0.12696  1.0000
  H   H66       1.0  0.25947  0.51628  0.16927  1.0000
  N   N18       1.0  0.24572  0.55924  0.23631  1.0000
  O   O7        1.0  0.25729  0.57258  0.27054  1.0000
  O   O8        1.0  0.24880  0.55914  0.15466  1.0000
  N   N19       1.0  0.21693  0.53808  0.32590  1.0000
  C   C87       1.0  0.47791  0.75569  0.25895  1.0000
  C   C88       1.0  0.47531  0.76963  0.26784  1.0000
  H   H67       1.0  0.47649  0.77682  0.21299  1.0000
  C   C89       1.0  0.47413  0.72919  0.32810  1.0000
  C   C90       1.0  0.46761  0.69535  0.32341  1.0000
  C   C91       1.0  0.45648  0.69957  0.28019  1.0000
  C   C92       1.0  0.45988  0.71642  0.28288  1.0000
  H   H68       1.0  0.45146  0.71921  0.25337  1.0000
  N   N20       1.0  0.48248  0.75255  0.17787  1.0000
  H   H69       1.0  0.48423  0.75984  0.12684  1.0000
  H   H70       1.0  0.48492  0.74346  0.16918  1.0000
  N   N21       1.0  0.44194  0.68677  0.23659  1.0000
  O   O9        1.0  0.42861  0.68503  0.27088  1.0000
  O   O10       1.0  0.44203  0.68993  0.15493  1.0000
  N   N22       1.0  0.46311  0.67912  0.32600  1.0000
  C   C93       1.0  0.24553  0.72249  0.25891  1.0000
  C   C94       1.0  0.23158  0.70595  0.26784  1.0000
  H   H71       1.0  0.22439  0.69992  0.21298  1.0000
  C   C95       1.0  0.27202  0.74522  0.32790  1.0000
  C   C96       1.0  0.30585  0.77255  0.32319  1.0000
  C   C97       1.0  0.30164  0.75720  0.27997  1.0000
  C   C98       1.0  0.28479  0.74375  0.28264  1.0000
  H   H72       1.0  0.28201  0.73254  0.25315  1.0000
  N   N23       1.0  0.24865  0.73018  0.17780  1.0000
  H   H73       1.0  0.24130  0.72468  0.12694  1.0000
  H   H74       1.0  0.25769  0.74174  0.16921  1.0000
  N   N24       1.0  0.31444  0.75547  0.23636  1.0000
  O   O11       1.0  0.31619  0.74389  0.27064  1.0000
  O   O12       1.0  0.31128  0.75239  0.15470  1.0000
  N   N25       1.0  0.32208  0.78426  0.32589  1.0000
  C   C99       1.0  0.72306  0.47750  0.25932  1.0000
  C   C100      1.0  0.70652  0.47488  0.26878  1.0000
  H   H75       1.0  0.70043  0.47603  0.21416  1.0000
  C   C101      1.0  0.74595  0.47392  0.32786  1.0000
  C   C102      1.0  0.77326  0.46738  0.32426  1.0000
  C   C103      1.0  0.75796  0.45626  0.28062  1.0000
  C   C104      1.0  0.74451  0.45967  0.28281  1.0000
  H   H76       1.0  0.73332  0.45123  0.25316  1.0000
  N   N26       1.0  0.73065  0.48202  0.17795  1.0000
  H   H77       1.0  0.72504  0.48371  0.12709  1.0000
  H   H78       1.0  0.74218  0.48447  0.16884  1.0000
  N   N27       1.0  0.75625  0.44171  0.23725  1.0000
  O   O13       1.0  0.74463  0.42839  0.27137  1.0000
  O   O14       1.0  0.75325  0.44180  0.15548  1.0000
  N   N28       1.0  0.78492  0.46280  0.32797  1.0000
  C   C105      1.0  0.52374  0.24584  0.25938  1.0000
  C   C106      1.0  0.52634  0.23191  0.26884  1.0000
  H   H79       1.0  0.52520  0.22468  0.21421  1.0000
  C   C107      1.0  0.52733  0.27232  0.32796  1.0000
  C   C108      1.0  0.53383  0.30616  0.32426  1.0000
  C   C109      1.0  0.54496  0.30197  0.28058  1.0000
  C   C110      1.0  0.54156  0.28512  0.28278  1.0000
  H   H80       1.0  0.55000  0.28238  0.25314  1.0000
  N   N29       1.0  0.51921  0.24892  0.17803  1.0000
  H   H81       1.0  0.51750  0.24161  0.12718  1.0000
  H   H82       1.0  0.51676  0.25800  0.16894  1.0000
  N   N30       1.0  0.55950  0.31482  0.23717  1.0000
  O   O15       1.0  0.57282  0.31653  0.27127  1.0000
  O   O16       1.0  0.55940  0.31173  0.15540  1.0000
  N   N31       1.0  0.53841  0.32239  0.32801  1.0000
  C   C111      1.0  0.75541  0.27814  0.25933  1.0000
  C   C112      1.0  0.76934  0.29468  0.26880  1.0000
  H   H83       1.0  0.77655  0.30077  0.21415  1.0000
  C   C113      1.0  0.72894  0.25526  0.32799  1.0000
  C   C114      1.0  0.69508  0.22796  0.32439  1.0000
  C   C115      1.0  0.69928  0.24327  0.28077  1.0000
  C   C116      1.0  0.71614  0.25671  0.28292  1.0000
  H   H84       1.0  0.71890  0.26791  0.25333  1.0000
  N   N32       1.0  0.75231  0.27055  0.17792  1.0000
  H   H85       1.0  0.75961  0.27617  0.12704  1.0000
  H   H86       1.0  0.74323  0.25903  0.16882  1.0000
  N   N33       1.0  0.68644  0.24500  0.23747  1.0000
  O   O17       1.0  0.68476  0.25663  0.27165  1.0000
  O   O18       1.0  0.68952  0.24800  0.15570  1.0000
  N   N34       1.0  0.67883  0.21630  0.32810  1.0000
  C   C117      1.0  0.18312  0.61637  0.33208  1.0000
  C   C118      1.0  0.17683  0.56087  0.33908  1.0000
  C   C119      1.0  0.11559  0.54901  0.33288  1.0000
  C   C120      1.0  0.09791  0.54185  0.33634  1.0000
  C   C121      1.0  0.20585  0.65204  0.32023  1.0000
  C   C122      1.0  0.21203  0.64069  0.32729  1.0000
  C   C123      1.0  0.20088  0.62323  0.33347  1.0000
  C   C124      1.0  0.19467  0.56863  0.34330  1.0000
  C   C125      1.0  0.20275  0.55902  0.34596  1.0000
  C   C126      1.0  0.19337  0.54115  0.34407  1.0000
  H   H87       1.0  0.20605  0.61559  0.33745  1.0000
  H   H88       1.0  0.22475  0.64501  0.32693  1.0000
  H   H89       1.0  0.20215  0.58148  0.34508  1.0000
  H   H90       1.0  0.21566  0.56532  0.35003  1.0000
  C   C127      1.0  0.16888  0.57089  0.33682  1.0000
  N   N35       1.0  0.17843  0.58798  0.33592  1.0000
  C   C128      1.0  0.17203  0.59852  0.33418  1.0000
  N   N36       1.0  0.15184  0.56425  0.33580  1.0000
  H   H91       1.0  0.12035  0.54100  0.33064  1.0000
  C   C129      1.0  0.20133  0.53156  0.34805  1.0000
  H   H92       1.0  0.09055  0.52897  0.33732  1.0000
  C   C130      1.0  0.21729  0.66901  0.30832  1.0000
  H   H93       1.0  0.22726  0.67209  0.26934  1.0000
  C   C131      1.0  0.38484  0.56701  0.33221  1.0000
  C   C132      1.0  0.44033  0.61624  0.33906  1.0000
  C   C133      1.0  0.45221  0.56685  0.33288  1.0000
  C   C134      1.0  0.45937  0.55635  0.33636  1.0000
  C   C135      1.0  0.34917  0.55406  0.32033  1.0000
  C   C136      1.0  0.36051  0.57158  0.32765  1.0000
  C   C137      1.0  0.37797  0.57790  0.33385  1.0000
  C   C138      1.0  0.43257  0.62632  0.34324  1.0000
  C   C139      1.0  0.44218  0.64401  0.34590  1.0000
  C   C140      1.0  0.46005  0.65250  0.34405  1.0000
  H   H94       1.0  0.38561  0.59072  0.33799  1.0000
  H   H95       1.0  0.35619  0.57998  0.32741  1.0000
  H   H96       1.0  0.41972  0.62094  0.34498  1.0000
  H   H97       1.0  0.43587  0.65060  0.34993  1.0000
  C   C141      1.0  0.43031  0.59826  0.33681  1.0000
  N   N37       1.0  0.41323  0.59072  0.33595  1.0000
  C   C142      1.0  0.40269  0.57377  0.33423  1.0000
  N   N38       1.0  0.43696  0.58786  0.33577  1.0000
  H   H98       1.0  0.46022  0.57963  0.33064  1.0000
  C   C143      1.0  0.46964  0.67005  0.34803  1.0000
  H   H99       1.0  0.47225  0.56187  0.33731  1.0000
  C   C144      1.0  0.33220  0.54851  0.30823  1.0000
  H   H100      1.0  0.32914  0.55542  0.26922  1.0000
  C   C145      1.0  0.43419  0.81809  0.33209  1.0000
  C   C146      1.0  0.38497  0.82436  0.33913  1.0000
  C   C147      1.0  0.43436  0.88562  0.33291  1.0000
  C   C148      1.0  0.44486  0.90329  0.33633  1.0000
  C   C149      1.0  0.44715  0.79537  0.32016  1.0000
  C   C150      1.0  0.42962  0.78919  0.32730  1.0000
  C   C151      1.0  0.42330  0.80033  0.33354  1.0000
  C   C152      1.0  0.37489  0.80653  0.34340  1.0000
  C   C153      1.0  0.35720  0.79844  0.34602  1.0000
  C   C154      1.0  0.34871  0.80783  0.34408  1.0000
  H   H101      1.0  0.41048  0.79515  0.33756  1.0000
  H   H102      1.0  0.42122  0.77646  0.32699  1.0000
  H   H103      1.0  0.38027  0.79905  0.34520  1.0000
  H   H104      1.0  0.35060  0.78554  0.35012  1.0000
  C   C155      1.0  0.40295  0.83232  0.33686  1.0000
  N   N39       1.0  0.41048  0.82277  0.33593  1.0000
  C   C156      1.0  0.42743  0.82918  0.33417  1.0000
  N   N40       1.0  0.41335  0.84937  0.33583  1.0000
  H   H105      1.0  0.42158  0.88086  0.33062  1.0000
  C   C157      1.0  0.33116  0.79987  0.34801  1.0000
  H   H106      1.0  0.43934  0.91065  0.33729  1.0000
  C   C158      1.0  0.45269  0.78394  0.30823  1.0000
  H   H107      1.0  0.44579  0.77397  0.26922  1.0000
  C   C159      1.0  0.81815  0.38411  0.33878  1.0000
  C   C160      1.0  0.82476  0.43974  0.34657  1.0000
  C   C161      1.0  0.88587  0.45125  0.33560  1.0000
  C   C162      1.0  0.90351  0.45832  0.33034  1.0000
  C   C163      1.0  0.79532  0.34851  0.32390  1.0000
  C   C164      1.0  0.78921  0.35992  0.33090  1.0000
  C   C165      1.0  0.80041  0.37734  0.33864  1.0000
  C   C166      1.0  0.80692  0.43206  0.34970  1.0000
  C   C167      1.0  0.79891  0.44175  0.35080  1.0000
  C   C168      1.0  0.80837  0.45961  0.34846  1.0000
  H   H108      1.0  0.79529  0.38504  0.34239  1.0000
  H   H109      1.0  0.77650  0.35567  0.32946  1.0000
  H   H110      1.0  0.79938  0.41922  0.35154  1.0000
  H   H111      1.0  0.78599  0.43550  0.35401  1.0000
  C   C169      1.0  0.83263  0.42964  0.34502  1.0000
  N   N41       1.0  0.82300  0.41256  0.34433  1.0000
  C   C170      1.0  0.82932  0.40194  0.34186  1.0000
  N   N42       1.0  0.84966  0.43619  0.34266  1.0000
  H   H112      1.0  0.88118  0.45932  0.33816  1.0000
  C   C171      1.0  0.80048  0.46928  0.35097  1.0000
  H   H113      1.0  0.91091  0.47119  0.32881  1.0000
  C   C172      1.0  0.78385  0.33158  0.31078  1.0000
  H   H114      1.0  0.77398  0.32863  0.27112  1.0000
  C   C173      1.0  0.61709  0.43431  0.33887  1.0000
  C   C174      1.0  0.56146  0.38528  0.34668  1.0000
  C   C175      1.0  0.54995  0.43488  0.33563  1.0000
  C   C176      1.0  0.54288  0.44546  0.33036  1.0000
  C   C177      1.0  0.65268  0.44708  0.32374  1.0000
  C   C178      1.0  0.64129  0.42957  0.33095  1.0000
  C   C179      1.0  0.62386  0.42334  0.33878  1.0000
  C   C180      1.0  0.56914  0.37512  0.34984  1.0000
  C   C181      1.0  0.55945  0.35742  0.35094  1.0000
  C   C182      1.0  0.54159  0.34903  0.34853  1.0000
  H   H115      1.0  0.61617  0.41052  0.34265  1.0000
  H   H116      1.0  0.64553  0.42110  0.32948  1.0000
  H   H117      1.0  0.58198  0.38044  0.35174  1.0000
  H   H118      1.0  0.56570  0.35076  0.35418  1.0000
  C   C183      1.0  0.57156  0.40326  0.34514  1.0000
  N   N43       1.0  0.58864  0.41071  0.34448  1.0000
  C   C184      1.0  0.59926  0.42765  0.34202  1.0000
  N   N44       1.0  0.56501  0.41374  0.34275  1.0000
  H   H119      1.0  0.54188  0.42212  0.33820  1.0000
  C   C185      1.0  0.53193  0.33147  0.35102  1.0000
  H   H120      1.0  0.53001  0.43998  0.32880  1.0000
  C   C186      1.0  0.66960  0.45254  0.31037  1.0000
  H   H121      1.0  0.67254  0.44565  0.27051  1.0000
  C   C187      1.0  0.56689  0.18303  0.33895  1.0000
  C   C188      1.0  0.61594  0.17646  0.34660  1.0000
  C   C189      1.0  0.56635  0.11533  0.33556  1.0000
  C   C190      1.0  0.55578  0.09769  0.33028  1.0000
  C   C191      1.0  0.55411  0.20584  0.32375  1.0000
  C   C192      1.0  0.57162  0.21197  0.33118  1.0000
  C   C193      1.0  0.57786  0.20078  0.33904  1.0000
  C   C194      1.0  0.62610  0.19429  0.34973  1.0000
  C   C195      1.0  0.64380  0.20231  0.35084  1.0000
  C   C196      1.0  0.65220  0.19285  0.34849  1.0000
  H   H122      1.0  0.59067  0.20591  0.34303  1.0000
  H   H123      1.0  0.58008  0.22468  0.32978  1.0000
  H   H124      1.0  0.62078  0.20183  0.35157  1.0000
  H   H125      1.0  0.65046  0.21522  0.35403  1.0000
  C   C197      1.0  0.59796  0.16857  0.34506  1.0000
  N   N45       1.0  0.59051  0.17820  0.34444  1.0000
  C   C198      1.0  0.57357  0.17187  0.34199  1.0000
  N   N46       1.0  0.58749  0.15155  0.34266  1.0000
  H   H126      1.0  0.57911  0.12003  0.33812  1.0000
  C   C199      1.0  0.66976  0.20074  0.35099  1.0000
  H   H127      1.0  0.56125  0.09029  0.32874  1.0000
  C   C200      1.0  0.54864  0.21729  0.31016  1.0000
  H   H128      1.0  0.55552  0.22709  0.27011  1.0000
  C   C201      1.0  0.99168  0.49655  0.33613  1.0000
  C   C202      1.0  0.95581  0.47742  0.34128  1.0000
  C   C203      1.0  0.96542  0.47077  0.37971  1.0000
  C   C204      1.0  0.98325  0.48035  0.37573  1.0000
  H   H129      1.0  0.99012  0.47545  0.40337  1.0000
  H   H130      1.0  0.00021  0.50758  0.50171  1.0000
  N   N47       1.0  0.95704  0.45491  0.42310  1.0000
  O   O19       1.0  0.96094  0.45624  0.50431  1.0000
  O   O20       1.0  0.96049  0.44457  0.38732  1.0000
  N   N48       1.0  0.93901  0.46951  0.34348  1.0000
  C   C205      1.0  0.48802  0.50649  0.41335  1.0000
  C   C206      1.0  0.47947  0.51577  0.40648  1.0000
  H   H131      1.0  0.47397  0.51741  0.46218  1.0000
  C   C207      1.0  0.50467  0.49540  0.33611  1.0000
  C   C208      1.0  0.52378  0.47865  0.34135  1.0000
  C   C209      1.0  0.53044  0.49492  0.37974  1.0000
  C   C210      1.0  0.52086  0.50317  0.37572  1.0000
  H   H132      1.0  0.52577  0.51495  0.40337  1.0000
  N   N49       1.0  0.48829  0.49971  0.49380  1.0000
  H   H133      1.0  0.48277  0.50114  0.54591  1.0000
  H   H134      1.0  0.49361  0.49288  0.50164  1.0000
  N   N50       1.0  0.54629  0.50239  0.42316  1.0000
  O   O21       1.0  0.54496  0.50496  0.50435  1.0000
  O   O22       1.0  0.55664  0.51618  0.38736  1.0000
  N   N51       1.0  0.53169  0.46976  0.34353  1.0000
  C   C211      1.0  0.49473  0.98180  0.41338  1.0000
  C   C212      1.0  0.48545  0.96397  0.40651  1.0000
  H   H135      1.0  0.48381  0.95682  0.46219  1.0000
  C   C213      1.0  0.50581  0.00953  0.33616  1.0000
  C   C214      1.0  0.52258  0.04539  0.34143  1.0000
  C   C215      1.0  0.50631  0.03579  0.37976  1.0000
  C   C216      1.0  0.49805  0.01796  0.37576  1.0000
  H   H136      1.0  0.48627  0.01109  0.40334  1.0000
  N   N52       1.0  0.50152  0.98885  0.49383  1.0000
  H   H137      1.0  0.50006  0.98190  0.54598  1.0000
  H   H138      1.0  0.50831  0.00099  0.50172  1.0000
  N   N53       1.0  0.49883  0.04418  0.42312  1.0000
  O   O23       1.0  0.49625  0.04027  0.50432  1.0000
  O   O24       1.0  0.48505  0.04074  0.38728  1.0000
  N   N54       1.0  0.53147  0.06219  0.34358  1.0000
  C   C217      1.0  0.30420  0.53124  0.34934  1.0000
  C   C218      1.0  0.29607  0.53301  0.42579  1.0000
  C   C219      1.0  0.27956  0.53035  0.41752  1.0000
  C   C220      1.0  0.27092  0.52592  0.33491  1.0000
  C   C221      1.0  0.24054  0.51580  0.37139  1.0000
  C   C222      1.0  0.22706  0.51925  0.36801  1.0000
  H   H139      1.0  0.21606  0.51143  0.40083  1.0000
  H   H140      1.0  0.27417  0.53265  0.47173  1.0000
  N   N55       1.0  0.23826  0.50184  0.41596  1.0000
  H   H141      1.0  0.24695  0.49870  0.41775  1.0000
  H   H142      1.0  0.22754  0.49416  0.44444  1.0000
  N   N56       1.0  0.30381  0.53828  0.51045  1.0000
  O   O25       1.0  0.30822  0.52825  0.54058  1.0000
  O   O26       1.0  0.31649  0.55288  0.50769  1.0000
  N   N57       1.0  0.32057  0.53613  0.35288  1.0000
  C   C223      1.0  0.47000  0.77325  0.34927  1.0000
  C   C224      1.0  0.46824  0.76336  0.42573  1.0000
  C   C225      1.0  0.47091  0.74952  0.41748  1.0000
  C   C226      1.0  0.47535  0.74531  0.33489  1.0000
  C   C227      1.0  0.48543  0.72502  0.37138  1.0000
  C   C228      1.0  0.48197  0.70809  0.36800  1.0000
  H   H143      1.0  0.48978  0.70489  0.40078  1.0000
  H   H144      1.0  0.46858  0.74182  0.47167  1.0000
  N   N58       1.0  0.49941  0.73669  0.41584  1.0000
  H   H145      1.0  0.50253  0.74852  0.41794  1.0000
  H   H146      1.0  0.50706  0.73364  0.44456  1.0000
  N   N59       1.0  0.46292  0.76580  0.51033  1.0000
  O   O27       1.0  0.47293  0.78024  0.54055  1.0000
  O   O28       1.0  0.44832  0.76386  0.50744  1.0000
  N   N60       1.0  0.46510  0.78472  0.35279  1.0000
  C   C229      1.0  0.22797  0.69702  0.34927  1.0000
  C   C230      1.0  0.23786  0.70515  0.42573  1.0000
  C   C231      1.0  0.25169  0.72167  0.41745  1.0000
  C   C232      1.0  0.25592  0.73030  0.33480  1.0000
  C   C233      1.0  0.27619  0.76068  0.37136  1.0000
  C   C234      1.0  0.29312  0.77415  0.36796  1.0000
  H   H147      1.0  0.29632  0.78515  0.40086  1.0000
  H   H148      1.0  0.25941  0.72705  0.47160  1.0000
  N   N61       1.0  0.26452  0.76297  0.41595  1.0000
  H   H149      1.0  0.25269  0.75426  0.41801  1.0000
  H   H150      1.0  0.26757  0.77366  0.44477  1.0000
  N   N62       1.0  0.23542  0.69741  0.51035  1.0000
  O   O29       1.0  0.22098  0.69297  0.54055  1.0000
  O   O30       1.0  0.23737  0.68475  0.50751  1.0000
  N   N63       1.0  0.21650  0.68064  0.35282  1.0000
  C   C235      1.0  0.69770  0.46966  0.35060  1.0000
  C   C236      1.0  0.70595  0.46800  0.42679  1.0000
  C   C237      1.0  0.72246  0.47068  0.41797  1.0000
  C   C238      1.0  0.73099  0.47502  0.33502  1.0000
  C   C239      1.0  0.76138  0.48521  0.37148  1.0000
  C   C240      1.0  0.77484  0.48173  0.36869  1.0000
  H   H151      1.0  0.78582  0.48954  0.40179  1.0000
  H   H152      1.0  0.72791  0.46842  0.47201  1.0000
  N   N64       1.0  0.76365  0.49919  0.41579  1.0000
  H   H153      1.0  0.75496  0.50233  0.41737  1.0000
  H   H154      1.0  0.77433  0.50684  0.44472  1.0000
  N   N65       1.0  0.69833  0.46279  0.51176  1.0000
  O   O31       1.0  0.69394  0.47283  0.54198  1.0000
  O   O32       1.0  0.68566  0.44818  0.50952  1.0000
  N   N66       1.0  0.68136  0.46482  0.35499  1.0000
  C   C241      1.0  0.53158  0.22832  0.35063  1.0000
  C   C242      1.0  0.53326  0.23824  0.42683  1.0000
  C   C243      1.0  0.53059  0.25207  0.41801  1.0000
  C   C244      1.0  0.52623  0.25625  0.33509  1.0000
  C   C245      1.0  0.51602  0.27644  0.37152  1.0000
  C   C246      1.0  0.51948  0.29337  0.36868  1.0000
  H   H155      1.0  0.51168  0.29654  0.40184  1.0000
  H   H156      1.0  0.53282  0.25978  0.47210  1.0000
  N   N67       1.0  0.50206  0.26473  0.41588  1.0000
  H   H157      1.0  0.49889  0.25289  0.41719  1.0000
  H   H158      1.0  0.49436  0.26773  0.44446  1.0000
  N   N68       1.0  0.53845  0.23581  0.51181  1.0000
  O   O33       1.0  0.52838  0.22138  0.54200  1.0000
  O   O34       1.0  0.55304  0.23773  0.50962  1.0000
  N   N69       1.0  0.53641  0.21680  0.35503  1.0000
  C   C247      1.0  0.77295  0.30348  0.35064  1.0000
  C   C248      1.0  0.76304  0.29523  0.42685  1.0000
  C   C249      1.0  0.74921  0.27873  0.41799  1.0000
  C   C250      1.0  0.74502  0.27020  0.33505  1.0000
  C   C251      1.0  0.72480  0.23981  0.37145  1.0000
  C   C252      1.0  0.70785  0.22636  0.36862  1.0000
  H   H159      1.0  0.70468  0.21538  0.40172  1.0000
  H   H160      1.0  0.74150  0.27327  0.47208  1.0000
  N   N70       1.0  0.73650  0.23752  0.41567  1.0000
  H   H161      1.0  0.74834  0.24621  0.41730  1.0000
  H   H162      1.0  0.73347  0.22684  0.44450  1.0000
  N   N71       1.0  0.76545  0.30285  0.51181  1.0000
  O   O35       1.0  0.77988  0.30724  0.54204  1.0000
  O   O36       1.0  0.76350  0.31551  0.50961  1.0000
  N   N72       1.0  0.78445  0.31983  0.35503  1.0000
