data_image0
_chemical_formula_structural       NCHNCHNCHNCHNCHNCHC2NC2OH3C2NC2OH3C2NC2OH3C2NC2OH3C2NC2OH3C2NC2OH3C2NC2OH3C2NC2OH3C2NC2OH3C2NC2OH3C2NC2OH3C2NC2OH3CNCNCNC18H12CNCNCNC18H12CNCNCNC18H12CNCNCNC18H12CNCNCNC18H12CNCNCNC18H12CNCNCNC18H12CNCNCNC18H12CNCNCNC18H12CNCNCNC18H12CNCNCNC18H12CNCNCNC18H12C2NC2OH3C2NC2OH3C2NC2OH3C2NC2OH3C2NC2OH3C2NC2OH3NCHNCHNCHNCHNCHNCHNCHNCHNCHNCHNCHNCH
_chemical_formula_sum              "N72 C342 H216 O18"
_cell_length_a       74.2828
_cell_length_b       74.2828
_cell_length_c       15.0089
_cell_angle_alpha    90
_cell_angle_beta     90
_cell_angle_gamma    120

_space_group_name_H-M_alt    "P 1"
_space_group_IT_number       1

loop_
  _space_group_symop_operation_xyz
  'x, y, z'

loop_
  _atom_site_type_symbol
  _atom_site_label
  _atom_site_symmetry_multiplicity
  _atom_site_fract_x
  _atom_site_fract_y
  _atom_site_fract_z
  _atom_site_occupancy
  N   N1        1.0  0.20773  0.39842  0.28370  1.0000
  C   C1        1.0  0.19838  0.37748  0.27574  1.0000
  H   H1        1.0  0.20260  0.37134  0.22440  1.0000
  N   N2        1.0  0.58746  0.79572  0.28343  1.0000
  C   C2        1.0  0.60840  0.80733  0.27552  1.0000
  H   H2        1.0  0.61454  0.81768  0.22413  1.0000
  N   N3        1.0  0.19009  0.77819  0.28345  1.0000
  C   C3        1.0  0.17850  0.78754  0.27553  1.0000
  H   H3        1.0  0.16814  0.78332  0.22420  1.0000
  N   N4        1.0  0.78251  0.58316  0.28346  1.0000
  C   C4        1.0  0.79185  0.60410  0.27556  1.0000
  H   H4        1.0  0.78764  0.61024  0.22417  1.0000
  N   N5        1.0  0.40272  0.18577  0.28368  1.0000
  C   C5        1.0  0.38178  0.17419  0.27573  1.0000
  H   H5        1.0  0.37563  0.16382  0.22439  1.0000
  N   N6        1.0  0.80005  0.20340  0.28367  1.0000
  C   C6        1.0  0.81165  0.19407  0.27574  1.0000
  H   H6        1.0  0.82200  0.19827  0.22434  1.0000
  C   C7        1.0  0.18326  0.20010  0.32375  1.0000
  C   C8        1.0  0.20353  0.17692  0.33322  1.0000
  N   N7        1.0  0.20790  0.19137  0.26857  1.0000
  C   C9        1.0  0.19866  0.20312  0.25999  1.0000
  C   C10       1.0  0.20447  0.21722  0.18187  1.0000
  O   O1        1.0  0.18691  0.21285  0.12740  1.0000
  H   H7        1.0  0.21613  0.21624  0.14082  1.0000
  H   H8        1.0  0.21148  0.23323  0.20498  1.0000
  H   H9        1.0  0.18158  0.19899  0.10066  1.0000
  C   C11       1.0  0.78578  0.96967  0.32377  1.0000
  C   C12       1.0  0.80897  0.01311  0.33314  1.0000
  N   N8        1.0  0.79452  0.00303  0.26849  1.0000
  C   C13       1.0  0.78277  0.98204  0.25994  1.0000
  C   C14       1.0  0.76866  0.97374  0.18188  1.0000
  O   O2        1.0  0.77300  0.96052  0.12745  1.0000
  H   H10       1.0  0.76964  0.98638  0.14079  1.0000
  H   H11       1.0  0.75265  0.96476  0.20506  1.0000
  H   H12       1.0  0.78685  0.96903  0.10065  1.0000
  C   C15       1.0  0.01621  0.80262  0.32375  1.0000
  C   C16       1.0  0.97277  0.78236  0.33316  1.0000
  N   N9        1.0  0.98285  0.77799  0.26852  1.0000
  C   C17       1.0  0.00385  0.78723  0.25997  1.0000
  C   C18       1.0  0.01213  0.78142  0.18187  1.0000
  O   O3        1.0  0.02533  0.79898  0.12742  1.0000
  H   H13       1.0  0.99949  0.76976  0.14080  1.0000
  H   H14       1.0  0.02113  0.77440  0.20499  1.0000
  H   H15       1.0  0.01681  0.80432  0.10066  1.0000
  C   C19       1.0  0.80692  0.78149  0.32378  1.0000
  C   C20       1.0  0.78667  0.80469  0.33316  1.0000
  N   N10       1.0  0.78230  0.79023  0.26851  1.0000
  C   C21       1.0  0.79154  0.77849  0.25995  1.0000
  C   C22       1.0  0.78572  0.76437  0.18189  1.0000
  O   O4        1.0  0.80328  0.76871  0.12746  1.0000
  H   H16       1.0  0.77406  0.76536  0.14081  1.0000
  H   H17       1.0  0.77869  0.74836  0.20508  1.0000
  H   H18       1.0  0.80862  0.78256  0.10065  1.0000
  C   C23       1.0  0.20439  0.01193  0.32375  1.0000
  C   C24       1.0  0.18120  0.96849  0.33324  1.0000
  N   N11       1.0  0.19566  0.97856  0.26859  1.0000
  C   C25       1.0  0.20741  0.99955  0.26000  1.0000
  C   C26       1.0  0.22150  0.00783  0.18188  1.0000
  O   O5        1.0  0.21714  0.02103  0.12741  1.0000
  H   H19       1.0  0.22052  0.99519  0.14084  1.0000
  H   H20       1.0  0.23752  0.01683  0.20500  1.0000
  H   H21       1.0  0.20328  0.01251  0.10067  1.0000
  C   C27       1.0  0.97395  0.17897  0.32377  1.0000
  C   C28       1.0  0.01740  0.19922  0.33320  1.0000
  N   N12       1.0  0.00732  0.20359  0.26855  1.0000
  C   C29       1.0  0.98633  0.19435  0.25996  1.0000
  C   C30       1.0  0.97804  0.20017  0.18189  1.0000
  O   O6        1.0  0.96482  0.18261  0.12744  1.0000
  H   H22       1.0  0.99068  0.21183  0.14082  1.0000
  H   H23       1.0  0.96905  0.20719  0.20505  1.0000
  H   H24       1.0  0.97333  0.17727  0.10065  1.0000
  C   C31       1.0  0.21190  0.61838  0.32727  1.0000
  C   C32       1.0  0.21286  0.58131  0.31283  1.0000
  N   N13       1.0  0.21491  0.59327  0.24069  1.0000
  C   C33       1.0  0.21390  0.61104  0.24254  1.0000
  C   C34       1.0  0.21763  0.62270  0.15775  1.0000
  O   O7        1.0  0.20043  0.62532  0.13371  1.0000
  H   H25       1.0  0.22076  0.61489  0.10313  1.0000
  H   H26       1.0  0.23136  0.63808  0.16490  1.0000
  H   H27       1.0  0.18844  0.61153  0.12026  1.0000
  C   C35       1.0  0.36756  0.57995  0.32655  1.0000
  C   C36       1.0  0.40462  0.61797  0.31251  1.0000
  N   N14       1.0  0.39275  0.60805  0.24016  1.0000
  C   C37       1.0  0.37499  0.58927  0.24190  1.0000
  C   C38       1.0  0.36342  0.58126  0.15696  1.0000
  O   O8        1.0  0.36082  0.56141  0.13358  1.0000
  H   H28       1.0  0.37130  0.59215  0.10223  1.0000
  H   H29       1.0  0.34804  0.57963  0.16358  1.0000
  H   H30       1.0  0.37462  0.56320  0.12059  1.0000
  C   C39       1.0  0.40587  0.77393  0.32738  1.0000
  C   C40       1.0  0.36783  0.77301  0.31287  1.0000
  N   N15       1.0  0.37774  0.77094  0.24078  1.0000
  C   C41       1.0  0.39651  0.77193  0.24270  1.0000
  C   C42       1.0  0.40443  0.76818  0.15790  1.0000
  O   O9        1.0  0.42425  0.78538  0.13380  1.0000
  H   H31       1.0  0.39347  0.76505  0.10329  1.0000
  H   H32       1.0  0.40606  0.75445  0.16509  1.0000
  H   H33       1.0  0.42245  0.79736  0.12032  1.0000
  C   C43       1.0  0.77836  0.36321  0.32676  1.0000
  C   C44       1.0  0.77743  0.40032  0.31255  1.0000
  N   N16       1.0  0.77548  0.38844  0.24027  1.0000
  C   C45       1.0  0.77648  0.37067  0.24213  1.0000
  C   C46       1.0  0.77292  0.35909  0.15720  1.0000
  O   O10       1.0  0.79017  0.35650  0.13381  1.0000
  H   H34       1.0  0.76989  0.36696  0.10247  1.0000
  H   H35       1.0  0.75918  0.34371  0.16386  1.0000
  H   H36       1.0  0.80218  0.37030  0.12079  1.0000
  C   C47       1.0  0.62273  0.40157  0.32742  1.0000
  C   C48       1.0  0.58560  0.36352  0.31288  1.0000
  N   N17       1.0  0.59758  0.37345  0.24078  1.0000
  C   C49       1.0  0.61535  0.39222  0.24272  1.0000
  C   C50       1.0  0.62701  0.40015  0.15791  1.0000
  O   O11       1.0  0.62963  0.41997  0.13389  1.0000
  H   H37       1.0  0.61919  0.38920  0.10327  1.0000
  H   H38       1.0  0.64238  0.40179  0.16504  1.0000
  H   H39       1.0  0.61584  0.41818  0.12046  1.0000
  C   C51       1.0  0.58425  0.20747  0.32667  1.0000
  C   C52       1.0  0.62227  0.20845  0.31252  1.0000
  N   N18       1.0  0.61234  0.21039  0.24020  1.0000
  C   C53       1.0  0.59356  0.20937  0.24199  1.0000
  C   C54       1.0  0.58554  0.21292  0.15707  1.0000
  O   O12       1.0  0.56569  0.19566  0.13371  1.0000
  H   H40       1.0  0.59643  0.21594  0.10233  1.0000
  H   H41       1.0  0.58389  0.22666  0.16372  1.0000
  H   H42       1.0  0.56749  0.18365  0.12070  1.0000
  C   C55       1.0  0.13841  0.24388  0.33182  1.0000
  N   N19       1.0  0.14842  0.26500  0.33088  1.0000
  C   C56       1.0  0.13825  0.27595  0.33204  1.0000
  N   N20       1.0  0.11714  0.26490  0.33386  1.0000
  C   C57       1.0  0.10622  0.24377  0.33470  1.0000
  N   N21       1.0  0.11727  0.23370  0.33374  1.0000
  C   C58       1.0  0.14929  0.29808  0.33192  1.0000
  C   C59       1.0  0.17058  0.30951  0.30820  1.0000
  C   C60       1.0  0.18150  0.33138  0.30845  1.0000
  C   C61       1.0  0.17163  0.34268  0.33378  1.0000
  C   C62       1.0  0.15042  0.33129  0.35839  1.0000
  C   C63       1.0  0.13941  0.30943  0.35652  1.0000
  C   C64       1.0  0.14962  0.23292  0.33024  1.0000
  C   C65       1.0  0.17162  0.24364  0.33533  1.0000
  C   C66       1.0  0.18273  0.23290  0.33323  1.0000
  C   C67       1.0  0.17222  0.21105  0.32492  1.0000
  C   C68       1.0  0.15028  0.20017  0.32170  1.0000
  C   C69       1.0  0.13920  0.21095  0.32383  1.0000
  C   C70       1.0  0.08409  0.23266  0.33555  1.0000
  C   C71       1.0  0.07277  0.21138  0.35943  1.0000
  C   C72       1.0  0.05090  0.20041  0.36001  1.0000
  C   C73       1.0  0.03950  0.21021  0.33521  1.0000
  C   C74       1.0  0.05079  0.23141  0.31036  1.0000
  C   C75       1.0  0.07264  0.24248  0.31154  1.0000
  H   H43       1.0  0.19856  0.24119  0.33940  1.0000
  H   H44       1.0  0.17992  0.25948  0.34150  1.0000
  H   H45       1.0  0.14219  0.18430  0.31639  1.0000
  H   H46       1.0  0.12333  0.20243  0.32018  1.0000
  H   H47       1.0  0.08032  0.20358  0.37743  1.0000
  H   H48       1.0  0.04340  0.18498  0.37646  1.0000
  H   H49       1.0  0.08008  0.25777  0.29282  1.0000
  H   H50       1.0  0.04319  0.23916  0.29238  1.0000
  H   H51       1.0  0.12410  0.30192  0.37510  1.0000
  H   H52       1.0  0.14263  0.33882  0.37678  1.0000
  H   H53       1.0  0.19694  0.33893  0.29215  1.0000
  H   H54       1.0  0.17843  0.30204  0.28980  1.0000
  C   C76       1.0  0.74200  0.88104  0.33184  1.0000
  N   N22       1.0  0.72088  0.86992  0.33090  1.0000
  C   C77       1.0  0.70993  0.84880  0.33202  1.0000
  N   N23       1.0  0.72099  0.83874  0.33381  1.0000
  C   C78       1.0  0.74212  0.84896  0.33466  1.0000
  N   N24       1.0  0.75218  0.87008  0.33373  1.0000
  C   C79       1.0  0.68780  0.83769  0.33188  1.0000
  C   C80       1.0  0.67637  0.84754  0.30812  1.0000
  C   C81       1.0  0.65450  0.83658  0.30830  1.0000
  C   C82       1.0  0.64321  0.81541  0.33360  1.0000
  C   C83       1.0  0.65460  0.80560  0.35828  1.0000
  C   C84       1.0  0.67646  0.81646  0.35647  1.0000
  C   C85       1.0  0.75295  0.90320  0.33030  1.0000
  C   C86       1.0  0.74223  0.91448  0.33543  1.0000
  C   C87       1.0  0.75297  0.93633  0.33334  1.0000
  C   C88       1.0  0.77482  0.94767  0.32499  1.0000
  C   C89       1.0  0.78570  0.93662  0.32175  1.0000
  C   C90       1.0  0.77493  0.91475  0.32389  1.0000
  C   C91       1.0  0.75323  0.83794  0.33549  1.0000
  C   C92       1.0  0.77451  0.84790  0.35935  1.0000
  C   C93       1.0  0.78549  0.83701  0.35990  1.0000
  C   C94       1.0  0.77568  0.81581  0.33514  1.0000
  C   C95       1.0  0.75449  0.80590  0.31026  1.0000
  C   C96       1.0  0.74342  0.81668  0.31146  1.0000
  H   H55       1.0  0.74469  0.94388  0.33947  1.0000
  H   H56       1.0  0.72640  0.90695  0.34156  1.0000
  H   H57       1.0  0.80157  0.94440  0.31640  1.0000
  H   H58       1.0  0.78344  0.90740  0.32019  1.0000
  H   H59       1.0  0.78231  0.86325  0.37737  1.0000
  H   H60       1.0  0.80092  0.84494  0.37640  1.0000
  H   H61       1.0  0.72812  0.80882  0.29277  1.0000
  H   H62       1.0  0.74673  0.79054  0.29234  1.0000
  H   H63       1.0  0.68399  0.80868  0.37506  1.0000
  H   H64       1.0  0.64708  0.79028  0.37665  1.0000
  H   H65       1.0  0.64694  0.84446  0.29197  1.0000
  H   H66       1.0  0.68382  0.86286  0.28972  1.0000
  C   C97       1.0  0.10485  0.84748  0.33185  1.0000
  N   N25       1.0  0.11596  0.83746  0.33090  1.0000
  C   C98       1.0  0.13708  0.84764  0.33205  1.0000
  N   N26       1.0  0.14713  0.86875  0.33388  1.0000
  C   C99       1.0  0.13693  0.87967  0.33474  1.0000
  N   N27       1.0  0.11580  0.86861  0.33378  1.0000
  C   C100      1.0  0.14817  0.83661  0.33189  1.0000
  C   C101      1.0  0.13832  0.81532  0.30814  1.0000
  C   C102      1.0  0.14927  0.80440  0.30835  1.0000
  C   C103      1.0  0.17044  0.81427  0.33364  1.0000
  C   C104      1.0  0.18025  0.83548  0.35829  1.0000
  C   C105      1.0  0.16941  0.84649  0.35647  1.0000
  C   C106      1.0  0.08268  0.83627  0.33028  1.0000
  C   C107      1.0  0.07140  0.81427  0.33537  1.0000
  C   C108      1.0  0.04955  0.80315  0.33327  1.0000
  C   C109      1.0  0.03821  0.81367  0.32495  1.0000
  C   C110      1.0  0.04927  0.83560  0.32172  1.0000
  C   C111      1.0  0.07113  0.84669  0.32386  1.0000
  C   C112      1.0  0.14794  0.90180  0.33559  1.0000
  C   C113      1.0  0.13798  0.91312  0.35945  1.0000
  C   C114      1.0  0.14889  0.93499  0.36002  1.0000
  C   C115      1.0  0.17008  0.94638  0.33525  1.0000
  C   C116      1.0  0.18000  0.93510  0.31043  1.0000
  C   C117      1.0  0.16921  0.91324  0.31161  1.0000
  H   H67       1.0  0.04200  0.78732  0.33944  1.0000
  H   H68       1.0  0.07894  0.80597  0.34156  1.0000
  H   H69       1.0  0.04148  0.84369  0.31639  1.0000
  H   H70       1.0  0.07848  0.86256  0.32020  1.0000
  H   H71       1.0  0.12264  0.90557  0.37742  1.0000
  H   H72       1.0  0.14095  0.94249  0.37644  1.0000
  H   H73       1.0  0.17706  0.90580  0.29290  1.0000
  H   H74       1.0  0.19535  0.94270  0.29247  1.0000
  H   H75       1.0  0.17719  0.86179  0.37507  1.0000
  H   H76       1.0  0.19558  0.84328  0.37666  1.0000
  H   H77       1.0  0.14138  0.78897  0.29203  1.0000
  H   H78       1.0  0.12300  0.80747  0.28976  1.0000
  C   C118      1.0  0.85176  0.73770  0.33184  1.0000
  N   N28       1.0  0.84174  0.71658  0.33090  1.0000
  C   C119      1.0  0.85192  0.70563  0.33202  1.0000
  N   N29       1.0  0.87304  0.71669  0.33380  1.0000
  C   C120      1.0  0.88396  0.73782  0.33465  1.0000
  N   N30       1.0  0.87289  0.74788  0.33372  1.0000
  C   C121      1.0  0.84090  0.68350  0.33188  1.0000
  C   C122      1.0  0.81961  0.67207  0.30814  1.0000
  C   C123      1.0  0.80870  0.65020  0.30833  1.0000
  C   C124      1.0  0.81858  0.63891  0.33363  1.0000
  C   C125      1.0  0.83978  0.65031  0.35830  1.0000
  C   C126      1.0  0.85079  0.67216  0.35648  1.0000
  C   C127      1.0  0.84055  0.74866  0.33030  1.0000
  C   C128      1.0  0.81855  0.73794  0.33544  1.0000
  C   C129      1.0  0.80744  0.74868  0.33336  1.0000
  C   C130      1.0  0.81796  0.77053  0.32500  1.0000
  C   C131      1.0  0.83989  0.78141  0.32174  1.0000
  C   C132      1.0  0.85098  0.77063  0.32387  1.0000
  C   C133      1.0  0.90608  0.74893  0.33547  1.0000
  C   C134      1.0  0.91740  0.77022  0.35929  1.0000
  C   C135      1.0  0.93927  0.78118  0.35985  1.0000
  C   C136      1.0  0.95067  0.77138  0.33511  1.0000
  C   C137      1.0  0.93938  0.75018  0.31027  1.0000
  C   C138      1.0  0.91753  0.73911  0.31144  1.0000
  H   H79       1.0  0.79160  0.74040  0.33949  1.0000
  H   H80       1.0  0.81025  0.72211  0.34158  1.0000
  H   H81       1.0  0.84798  0.79728  0.31639  1.0000
  H   H82       1.0  0.86684  0.77914  0.32017  1.0000
  H   H83       1.0  0.90985  0.77801  0.37732  1.0000
  H   H84       1.0  0.94677  0.79661  0.37634  1.0000
  H   H85       1.0  0.91009  0.72381  0.29282  1.0000
  H   H86       1.0  0.94698  0.74243  0.29238  1.0000
  H   H87       1.0  0.86609  0.67968  0.37506  1.0000
  H   H88       1.0  0.84759  0.64278  0.37666  1.0000
  H   H89       1.0  0.79326  0.64264  0.29201  1.0000
  H   H90       1.0  0.81175  0.67953  0.28973  1.0000
  C   C139      1.0  0.24817  0.10056  0.33181  1.0000
  N   N31       1.0  0.26930  0.11167  0.33088  1.0000
  C   C140      1.0  0.28025  0.13279  0.33204  1.0000
  N   N32       1.0  0.26920  0.14285  0.33386  1.0000
  C   C141      1.0  0.24807  0.13265  0.33470  1.0000
  N   N33       1.0  0.23800  0.11152  0.33374  1.0000
  C   C142      1.0  0.30238  0.14388  0.33192  1.0000
  C   C143      1.0  0.31381  0.13402  0.30819  1.0000
  C   C144      1.0  0.33567  0.14497  0.30844  1.0000
  C   C145      1.0  0.34698  0.16613  0.33377  1.0000
  C   C146      1.0  0.33559  0.17595  0.35839  1.0000
  C   C147      1.0  0.31373  0.16511  0.35652  1.0000
  C   C148      1.0  0.23722  0.07840  0.33024  1.0000
  C   C149      1.0  0.24794  0.06711  0.33533  1.0000
  C   C150      1.0  0.23719  0.04526  0.33324  1.0000
  C   C151      1.0  0.21534  0.03393  0.32493  1.0000
  C   C152      1.0  0.20447  0.04498  0.32169  1.0000
  C   C153      1.0  0.21524  0.06685  0.32382  1.0000
  C   C154      1.0  0.23696  0.14366  0.33555  1.0000
  C   C155      1.0  0.21568  0.13370  0.35941  1.0000
  C   C156      1.0  0.20471  0.14460  0.35999  1.0000
  C   C157      1.0  0.21452  0.16580  0.33523  1.0000
  C   C158      1.0  0.23571  0.17572  0.31040  1.0000
  C   C159      1.0  0.24678  0.16493  0.31156  1.0000
  H   H91       1.0  0.24548  0.03771  0.33942  1.0000
  H   H92       1.0  0.26377  0.07465  0.34152  1.0000
  H   H93       1.0  0.18860  0.03721  0.31637  1.0000
  H   H94       1.0  0.20673  0.07420  0.32016  1.0000
  H   H95       1.0  0.20788  0.11836  0.37739  1.0000
  H   H96       1.0  0.18928  0.13667  0.37641  1.0000
  H   H97       1.0  0.26208  0.17279  0.29288  1.0000
  H   H98       1.0  0.24347  0.19107  0.29245  1.0000
  H   H99       1.0  0.30622  0.17291  0.37510  1.0000
  H   H100      1.0  0.34312  0.19128  0.37678  1.0000
  H   H101      1.0  0.34322  0.13707  0.29215  1.0000
  H   H102      1.0  0.30634  0.11870  0.28980  1.0000
  C   C160      1.0  0.88532  0.13412  0.33180  1.0000
  N   N34       1.0  0.87421  0.14414  0.33088  1.0000
  C   C161      1.0  0.85309  0.13397  0.33201  1.0000
  N   N35       1.0  0.84303  0.11285  0.33380  1.0000
  C   C162      1.0  0.85324  0.10193  0.33462  1.0000
  N   N36       1.0  0.87436  0.11299  0.33369  1.0000
  C   C163      1.0  0.84199  0.14500  0.33191  1.0000
  C   C164      1.0  0.85184  0.16628  0.30818  1.0000
  C   C165      1.0  0.84089  0.17719  0.30842  1.0000
  C   C166      1.0  0.81972  0.16732  0.33374  1.0000
  C   C167      1.0  0.80991  0.14612  0.35839  1.0000
  C   C168      1.0  0.82076  0.13511  0.35653  1.0000
  C   C169      1.0  0.90748  0.14533  0.33026  1.0000
  C   C170      1.0  0.91877  0.16734  0.33539  1.0000
  C   C171      1.0  0.94062  0.17844  0.33332  1.0000
  C   C172      1.0  0.95195  0.16793  0.32498  1.0000
  C   C173      1.0  0.94090  0.14600  0.32173  1.0000
  C   C174      1.0  0.91904  0.13491  0.32385  1.0000
  C   C175      1.0  0.84223  0.07981  0.33545  1.0000
  C   C176      1.0  0.85219  0.06848  0.35930  1.0000
  C   C177      1.0  0.84129  0.04661  0.35986  1.0000
  C   C178      1.0  0.82009  0.03522  0.33511  1.0000
  C   C179      1.0  0.81018  0.04650  0.31024  1.0000
  C   C180      1.0  0.82096  0.06836  0.31140  1.0000
  H   H103      1.0  0.94817  0.19428  0.33945  1.0000
  H   H104      1.0  0.91123  0.17563  0.34152  1.0000
  H   H105      1.0  0.94868  0.13790  0.31639  1.0000
  H   H106      1.0  0.91168  0.11904  0.32016  1.0000
  H   H107      1.0  0.86753  0.07603  0.37733  1.0000
  H   H108      1.0  0.84922  0.03912  0.37636  1.0000
  H   H109      1.0  0.81310  0.07580  0.29275  1.0000
  H   H110      1.0  0.79482  0.03890  0.29232  1.0000
  H   H111      1.0  0.81297  0.11980  0.37510  1.0000
  H   H112      1.0  0.79458  0.13831  0.37678  1.0000
  H   H113      1.0  0.84877  0.19264  0.29211  1.0000
  H   H114      1.0  0.86716  0.17414  0.28976  1.0000
  C   C181      1.0  0.24799  0.52888  0.32554  1.0000
  N   N37       1.0  0.23768  0.50782  0.33064  1.0000
  C   C182      1.0  0.24778  0.49683  0.33956  1.0000
  N   N38       1.0  0.26896  0.50780  0.34437  1.0000
  C   C183      1.0  0.27994  0.52892  0.34136  1.0000
  N   N39       1.0  0.26901  0.53894  0.33126  1.0000
  C   C184      1.0  0.23655  0.47467  0.34260  1.0000
  C   C185      1.0  0.21457  0.46336  0.33563  1.0000
  C   C186      1.0  0.20346  0.44151  0.33777  1.0000
  C   C187      1.0  0.21395  0.43019  0.34777  1.0000
  C   C188      1.0  0.23586  0.44125  0.35319  1.0000
  C   C189      1.0  0.24694  0.46312  0.35126  1.0000
  C   C190      1.0  0.23769  0.54047  0.31487  1.0000
  C   C191      1.0  0.21824  0.53426  0.35532  1.0000
  C   C192      1.0  0.20951  0.54731  0.35292  1.0000
  C   C193      1.0  0.21953  0.56647  0.30672  1.0000
  C   C194      1.0  0.23841  0.57208  0.26229  1.0000
  C   C195      1.0  0.24745  0.55943  0.26722  1.0000
  C   C196      1.0  0.30200  0.54059  0.34645  1.0000
  C   C197      1.0  0.31205  0.56163  0.37403  1.0000
  C   C198      1.0  0.33377  0.57405  0.37198  1.0000
  C   C199      1.0  0.34621  0.56587  0.34152  1.0000
  C   C200      1.0  0.33644  0.54473  0.31654  1.0000
  C   C201      1.0  0.31461  0.53218  0.32012  1.0000
  H   H115      1.0  0.19599  0.54291  0.38688  1.0000
  H   H116      1.0  0.21095  0.52087  0.39203  1.0000
  H   H117      1.0  0.24653  0.58611  0.23051  1.0000
  H   H118      1.0  0.26152  0.56450  0.23685  1.0000
  H   H119      1.0  0.30365  0.56841  0.39407  1.0000
  H   H120      1.0  0.34034  0.58945  0.38849  1.0000
  H   H121      1.0  0.30796  0.51715  0.29824  1.0000
  H   H122      1.0  0.34509  0.53853  0.29284  1.0000
  H   H123      1.0  0.26279  0.47047  0.35595  1.0000
  H   H124      1.0  0.24393  0.43348  0.35965  1.0000
  H   H125      1.0  0.18766  0.43395  0.33019  1.0000
  H   H126      1.0  0.20628  0.47086  0.32802  1.0000
  C   C202      1.0  0.45698  0.70554  0.32624  1.0000
  N   N40       1.0  0.47805  0.71628  0.33103  1.0000
  C   C203      1.0  0.48905  0.73737  0.33989  1.0000
  N   N41       1.0  0.47810  0.74759  0.34492  1.0000
  C   C204      1.0  0.45698  0.73747  0.34222  1.0000
  N   N42       1.0  0.44693  0.71651  0.33218  1.0000
  C   C205      1.0  0.51122  0.74830  0.34266  1.0000
  C   C206      1.0  0.52252  0.73763  0.33557  1.0000
  C   C207      1.0  0.54437  0.74837  0.33755  1.0000
  C   C208      1.0  0.55569  0.77017  0.34753  1.0000
  C   C209      1.0  0.54464  0.78102  0.35302  1.0000
  C   C210      1.0  0.52277  0.77024  0.35125  1.0000
  C   C211      1.0  0.44538  0.68365  0.31553  1.0000
  C   C212      1.0  0.45163  0.67040  0.35551  1.0000
  C   C213      1.0  0.43863  0.64862  0.35276  1.0000
  C   C214      1.0  0.41944  0.63949  0.30676  1.0000
  C   C215      1.0  0.41375  0.65277  0.26306  1.0000
  C   C216      1.0  0.42637  0.67446  0.26823  1.0000
  C   C217      1.0  0.44532  0.74786  0.34749  1.0000
  C   C218      1.0  0.42434  0.73692  0.37598  1.0000
  C   C219      1.0  0.41191  0.74621  0.37383  1.0000
  C   C220      1.0  0.42001  0.76675  0.34248  1.0000
  C   C221      1.0  0.44110  0.77808  0.31675  1.0000
  C   C222      1.0  0.45367  0.76882  0.32036  1.0000
  H   H127      1.0  0.44308  0.63947  0.38620  1.0000
  H   H128      1.0  0.46509  0.67649  0.39173  1.0000
  H   H129      1.0  0.39969  0.64686  0.23152  1.0000
  H   H130      1.0  0.42125  0.68346  0.23829  1.0000
  H   H131      1.0  0.41762  0.72179  0.39661  1.0000
  H   H132      1.0  0.39655  0.73740  0.39102  1.0000
  H   H133      1.0  0.46864  0.77714  0.29773  1.0000
  H   H134      1.0  0.44723  0.79286  0.29231  1.0000
  H   H135      1.0  0.51542  0.77874  0.35604  1.0000
  H   H136      1.0  0.55242  0.79687  0.35949  1.0000
  H   H137      1.0  0.55193  0.74012  0.32992  1.0000
  H   H138      1.0  0.51501  0.72183  0.32799  1.0000
  C   C223      1.0  0.28028  0.73790  0.32571  1.0000
  N   N43       1.0  0.26953  0.74822  0.33064  1.0000
  C   C224      1.0  0.24844  0.73813  0.33959  1.0000
  N   N44       1.0  0.23823  0.71696  0.34462  1.0000
  C   C225      1.0  0.24836  0.70597  0.34180  1.0000
  N   N45       1.0  0.26932  0.71688  0.33165  1.0000
  C   C226      1.0  0.23751  0.74936  0.34248  1.0000
  C   C227      1.0  0.24818  0.77134  0.33543  1.0000
  C   C228      1.0  0.23745  0.78245  0.33750  1.0000
  C   C229      1.0  0.21564  0.77197  0.34751  1.0000
  C   C230      1.0  0.20479  0.75006  0.35299  1.0000
  C   C231      1.0  0.21557  0.73898  0.35114  1.0000
  C   C232      1.0  0.30216  0.74819  0.31499  1.0000
  C   C233      1.0  0.31541  0.76766  0.35530  1.0000
  C   C234      1.0  0.33719  0.77639  0.35286  1.0000
  C   C235      1.0  0.34632  0.76634  0.30676  1.0000
  C   C236      1.0  0.33304  0.74745  0.26246  1.0000
  C   C237      1.0  0.31136  0.73841  0.26744  1.0000
  C   C238      1.0  0.23797  0.68391  0.34711  1.0000
  C   C239      1.0  0.24893  0.67388  0.37541  1.0000
  C   C240      1.0  0.23964  0.65216  0.37344  1.0000
  C   C241      1.0  0.21909  0.63971  0.34232  1.0000
  C   C242      1.0  0.20774  0.64946  0.31667  1.0000
  C   C243      1.0  0.21700  0.67129  0.32025  1.0000
  H   H139      1.0  0.34632  0.78992  0.38674  1.0000
  H   H140      1.0  0.30932  0.77496  0.39194  1.0000
  H   H141      1.0  0.33894  0.73931  0.23076  1.0000
  H   H142      1.0  0.30235  0.72433  0.23717  1.0000
  H   H143      1.0  0.26408  0.68230  0.39587  1.0000
  H   H144      1.0  0.24847  0.64562  0.39044  1.0000
  H   H145      1.0  0.20865  0.67793  0.29772  1.0000
  H   H146      1.0  0.19295  0.64080  0.29246  1.0000
  H   H147      1.0  0.20707  0.72313  0.35590  1.0000
  H   H148      1.0  0.18895  0.74199  0.35947  1.0000
  H   H149      1.0  0.24569  0.79826  0.32988  1.0000
  H   H150      1.0  0.26398  0.77962  0.32783  1.0000
  C   C244      1.0  0.74223  0.45269  0.32613  1.0000
  N   N46       1.0  0.75255  0.47376  0.33095  1.0000
  C   C245      1.0  0.74246  0.48475  0.33984  1.0000
  N   N47       1.0  0.72129  0.47380  0.34488  1.0000
  C   C246      1.0  0.71030  0.45268  0.34215  1.0000
  N   N48       1.0  0.72121  0.44263  0.33208  1.0000
  C   C247      1.0  0.75369  0.50692  0.34264  1.0000
  C   C248      1.0  0.77567  0.51823  0.33555  1.0000
  C   C249      1.0  0.78678  0.54007  0.33755  1.0000
  C   C250      1.0  0.77630  0.55140  0.34756  1.0000
  C   C251      1.0  0.75439  0.54034  0.35304  1.0000
  C   C252      1.0  0.74331  0.51847  0.35125  1.0000
  C   C253      1.0  0.75252  0.44109  0.31541  1.0000
  C   C254      1.0  0.77202  0.44734  0.35547  1.0000
  C   C255      1.0  0.78079  0.43433  0.35276  1.0000
  C   C256      1.0  0.77074  0.41515  0.30673  1.0000
  C   C257      1.0  0.75177  0.40946  0.26294  1.0000
  C   C258      1.0  0.74271  0.42209  0.26807  1.0000
  C   C259      1.0  0.68824  0.44102  0.34744  1.0000
  C   C260      1.0  0.67821  0.42004  0.37587  1.0000
  C   C261      1.0  0.65649  0.40760  0.37376  1.0000
  C   C262      1.0  0.64405  0.41570  0.34249  1.0000
  C   C263      1.0  0.65380  0.43680  0.31681  1.0000
  C   C264      1.0  0.67563  0.44937  0.32039  1.0000
  H   H151      1.0  0.79438  0.43878  0.38626  1.0000
  H   H152      1.0  0.77938  0.46079  0.39174  1.0000
  H   H153      1.0  0.74363  0.39541  0.23136  1.0000
  H   H154      1.0  0.72860  0.41697  0.23808  1.0000
  H   H155      1.0  0.68663  0.41331  0.39645  1.0000
  H   H156      1.0  0.64994  0.39224  0.39091  1.0000
  H   H157      1.0  0.68228  0.46435  0.29780  1.0000
  H   H158      1.0  0.64515  0.44293  0.29243  1.0000
  H   H159      1.0  0.72746  0.51112  0.35604  1.0000
  H   H160      1.0  0.74633  0.54812  0.35953  1.0000
  H   H161      1.0  0.80259  0.54763  0.32992  1.0000
  H   H162      1.0  0.78395  0.51071  0.32796  1.0000
  C   C265      1.0  0.53318  0.27597  0.32552  1.0000
  N   N49       1.0  0.51212  0.26522  0.33061  1.0000
  C   C266      1.0  0.50113  0.24413  0.33955  1.0000
  N   N50       1.0  0.51210  0.23392  0.34438  1.0000
  C   C267      1.0  0.53321  0.24405  0.34138  1.0000
  N   N51       1.0  0.54324  0.26501  0.33126  1.0000
  C   C268      1.0  0.47896  0.23319  0.34258  1.0000
  C   C269      1.0  0.46765  0.24386  0.33560  1.0000
  C   C270      1.0  0.44581  0.23312  0.33775  1.0000
  C   C271      1.0  0.43449  0.21132  0.34776  1.0000
  C   C272      1.0  0.44555  0.20047  0.35318  1.0000
  C   C273      1.0  0.46742  0.21126  0.35125  1.0000
  C   C274      1.0  0.54476  0.29785  0.31485  1.0000
  C   C275      1.0  0.53856  0.31109  0.35530  1.0000
  C   C276      1.0  0.55160  0.33287  0.35292  1.0000
  C   C277      1.0  0.57076  0.34202  0.30672  1.0000
  C   C278      1.0  0.57637  0.32875  0.26228  1.0000
  C   C279      1.0  0.56373  0.30706  0.26720  1.0000
  C   C280      1.0  0.54488  0.23366  0.34651  1.0000
  C   C281      1.0  0.56593  0.24466  0.37413  1.0000
  C   C282      1.0  0.57834  0.23535  0.37211  1.0000
  C   C283      1.0  0.57016  0.21472  0.34170  1.0000
  C   C284      1.0  0.54903  0.20336  0.31663  1.0000
  C   C285      1.0  0.53648  0.21265  0.32018  1.0000
  H   H163      1.0  0.54721  0.34200  0.38689  1.0000
  H   H164      1.0  0.52517  0.30500  0.39201  1.0000
  H   H165      1.0  0.59040  0.33466  0.23051  1.0000
  H   H166      1.0  0.56880  0.29806  0.23683  1.0000
  H   H167      1.0  0.57270  0.25984  0.39415  1.0000
  H   H168      1.0  0.59374  0.24419  0.38864  1.0000
  H   H169      1.0  0.52145  0.20427  0.29826  1.0000
  H   H170      1.0  0.54283  0.18852  0.29291  1.0000
  H   H171      1.0  0.47477  0.20276  0.35594  1.0000
  H   H172      1.0  0.43777  0.18463  0.35965  1.0000
  H   H173      1.0  0.43824  0.24137  0.33016  1.0000
  H   H174      1.0  0.47516  0.25966  0.32799  1.0000
  C   C286      1.0  0.70985  0.24367  0.32598  1.0000
  N   N52       1.0  0.72060  0.23335  0.33096  1.0000
  C   C287      1.0  0.74169  0.24345  0.33981  1.0000
  N   N53       1.0  0.75190  0.26462  0.34466  1.0000
  C   C288      1.0  0.74178  0.27561  0.34175  1.0000
  N   N54       1.0  0.72082  0.26469  0.33172  1.0000
  C   C289      1.0  0.75262  0.23222  0.34274  1.0000
  C   C290      1.0  0.74195  0.21024  0.33574  1.0000
  C   C291      1.0  0.75269  0.19913  0.33780  1.0000
  C   C292      1.0  0.77450  0.20962  0.34779  1.0000
  C   C293      1.0  0.78534  0.23152  0.35321  1.0000
  C   C294      1.0  0.77456  0.24261  0.35136  1.0000
  C   C295      1.0  0.68796  0.23337  0.31531  1.0000
  C   C296      1.0  0.67472  0.21389  0.35548  1.0000
  C   C297      1.0  0.65294  0.20511  0.35280  1.0000
  C   C298      1.0  0.64379  0.21514  0.30670  1.0000
  C   C299      1.0  0.65707  0.23409  0.26280  1.0000
  C   C300      1.0  0.67875  0.24316  0.26789  1.0000
  C   C301      1.0  0.75217  0.29767  0.34683  1.0000
  C   C302      1.0  0.74120  0.30773  0.37461  1.0000
  C   C303      1.0  0.75051  0.32945  0.37244  1.0000
  C   C304      1.0  0.77111  0.34188  0.34182  1.0000
  C   C305      1.0  0.78247  0.33211  0.31671  1.0000
  C   C306      1.0  0.77317  0.31027  0.32026  1.0000
  H   H175      1.0  0.64380  0.19153  0.38638  1.0000
  H   H176      1.0  0.68081  0.20654  0.39181  1.0000
  H   H177      1.0  0.65115  0.24223  0.23116  1.0000
  H   H178      1.0  0.68775  0.25727  0.23781  1.0000
  H   H179      1.0  0.72603  0.29933  0.39480  1.0000
  H   H180      1.0  0.74168  0.33602  0.38915  1.0000
  H   H181      1.0  0.78154  0.30361  0.29826  1.0000
  H   H182      1.0  0.79729  0.34074  0.29278  1.0000
  H   H183      1.0  0.78306  0.25846  0.35608  1.0000
  H   H184      1.0  0.80119  0.23959  0.35968  1.0000
  H   H185      1.0  0.74445  0.18332  0.33020  1.0000
  H   H186      1.0  0.72616  0.20195  0.32813  1.0000
  C   C307      1.0  0.20291  0.40820  0.34807  1.0000
  C   C308      1.0  0.18260  0.36479  0.33661  1.0000
  N   N55       1.0  0.17805  0.37472  0.40132  1.0000
  C   C309      1.0  0.18730  0.39570  0.41078  1.0000
  C   C310      1.0  0.18126  0.40384  0.48864  1.0000
  O   O13       1.0  0.19864  0.41686  0.54432  1.0000
  H   H187      1.0  0.16941  0.39113  0.52880  1.0000
  H   H188      1.0  0.17440  0.41296  0.46520  1.0000
  H   H189      1.0  0.20383  0.40822  0.57126  1.0000
  C   C311      1.0  0.57768  0.78112  0.34778  1.0000
  C   C312      1.0  0.62110  0.80425  0.33641  1.0000
  N   N56       1.0  0.61117  0.78977  0.40111  1.0000
  C   C313      1.0  0.59019  0.77804  0.41056  1.0000
  C   C314      1.0  0.58205  0.76383  0.48836  1.0000
  O   O14       1.0  0.56901  0.76817  0.54402  1.0000
  H   H190      1.0  0.59476  0.76471  0.52855  1.0000
  H   H191      1.0  0.57295  0.74786  0.46485  1.0000
  H   H192      1.0  0.57763  0.78199  0.57102  1.0000
  C   C315      1.0  0.20469  0.78301  0.34781  1.0000
  C   C316      1.0  0.18159  0.80332  0.33643  1.0000
  N   N57       1.0  0.19607  0.80786  0.40112  1.0000
  C   C317      1.0  0.20780  0.79861  0.41055  1.0000
  C   C318      1.0  0.22199  0.80465  0.48840  1.0000
  O   O15       1.0  0.21762  0.78727  0.54406  1.0000
  H   H193      1.0  0.22112  0.81650  0.52857  1.0000
  H   H194      1.0  0.23797  0.81151  0.46494  1.0000
  H   H195      1.0  0.20380  0.78208  0.57101  1.0000
  C   C319      1.0  0.78733  0.57339  0.34782  1.0000
  C   C320      1.0  0.80762  0.61680  0.33644  1.0000
  N   N58       1.0  0.81217  0.60687  0.40114  1.0000
  C   C321      1.0  0.80293  0.58589  0.41060  1.0000
  C   C322      1.0  0.80899  0.57774  0.48840  1.0000
  O   O16       1.0  0.79161  0.56471  0.54406  1.0000
  H   H196      1.0  0.82083  0.59046  0.52858  1.0000
  H   H197      1.0  0.81586  0.56864  0.46489  1.0000
  H   H198      1.0  0.78641  0.57333  0.57106  1.0000
  C   C323      1.0  0.41250  0.20037  0.34805  1.0000
  C   C324      1.0  0.36909  0.17727  0.33661  1.0000
  N   N59       1.0  0.37902  0.19175  0.40132  1.0000
  C   C325      1.0  0.40000  0.20347  0.41078  1.0000
  C   C326      1.0  0.40815  0.21766  0.48864  1.0000
  O   O17       1.0  0.42116  0.21329  0.54431  1.0000
  H   H199      1.0  0.39543  0.21680  0.52879  1.0000
  H   H200      1.0  0.41727  0.23364  0.46519  1.0000
  H   H201      1.0  0.41252  0.19947  0.57125  1.0000
  C   C327      1.0  0.78545  0.19858  0.34805  1.0000
  C   C328      1.0  0.80857  0.17828  0.33660  1.0000
  N   N60       1.0  0.79409  0.17373  0.40132  1.0000
  C   C329      1.0  0.78237  0.18298  0.41080  1.0000
  C   C330      1.0  0.76816  0.17692  0.48861  1.0000
  O   O18       1.0  0.77250  0.19430  0.54430  1.0000
  H   H202      1.0  0.76904  0.16508  0.52878  1.0000
  H   H203      1.0  0.75219  0.17005  0.46512  1.0000
  H   H204      1.0  0.78632  0.19949  0.57128  1.0000
  N   N61       1.0  0.17860  0.18550  0.38799  1.0000
  C   C331      1.0  0.18792  0.17387  0.39501  1.0000
  H   H205      1.0  0.18384  0.16352  0.44634  1.0000
  N   N62       1.0  0.80038  0.97960  0.38801  1.0000
  C   C332      1.0  0.81202  0.00056  0.39495  1.0000
  H   H206      1.0  0.82236  0.00683  0.44632  1.0000
  N   N63       1.0  0.00628  0.80729  0.38798  1.0000
  C   C333      1.0  0.98533  0.79796  0.39497  1.0000
  H   H207      1.0  0.97906  0.80205  0.44628  1.0000
  N   N64       1.0  0.81158  0.79609  0.38802  1.0000
  C   C334      1.0  0.80227  0.80774  0.39496  1.0000
  H   H208      1.0  0.80634  0.81807  0.44634  1.0000
  N   N65       1.0  0.18979  0.00200  0.38800  1.0000
  C   C335      1.0  0.17816  0.98105  0.39503  1.0000
  H   H209      1.0  0.16781  0.97479  0.44635  1.0000
  N   N66       1.0  0.98388  0.17430  0.38803  1.0000
  C   C336      1.0  0.00484  0.18362  0.39499  1.0000
  H   H210      1.0  0.01110  0.17955  0.44638  1.0000
  N   N67       1.0  0.21025  0.60669  0.39992  1.0000
  C   C337      1.0  0.20957  0.58813  0.39581  1.0000
  H   H211      1.0  0.20958  0.58096  0.45393  1.0000
  N   N68       1.0  0.37916  0.59001  0.39937  1.0000
  C   C338      1.0  0.39776  0.60788  0.39550  1.0000
  H   H212      1.0  0.40477  0.61509  0.45378  1.0000
  N   N69       1.0  0.39580  0.77559  0.39992  1.0000
  C   C339      1.0  0.37793  0.77630  0.39584  1.0000
  H   H213      1.0  0.37076  0.77630  0.45396  1.0000
  N   N70       1.0  0.77990  0.37486  0.39944  1.0000
  C   C340      1.0  0.78066  0.39347  0.39557  1.0000
  H   H214      1.0  0.78045  0.40048  0.45384  1.0000
  N   N71       1.0  0.61100  0.39149  0.39996  1.0000
  C   C341      1.0  0.59242  0.37362  0.39587  1.0000
  H   H215      1.0  0.58527  0.36644  0.45399  1.0000
  N   N72       1.0  0.59433  0.20594  0.39945  1.0000
  C   C342      1.0  0.61219  0.20521  0.39553  1.0000
  H   H216      1.0  0.61941  0.20542  0.45380  1.0000
