data_image0
_chemical_formula_structural       NCH2NCH2NCH2NCH2NCH2NCH2C2NC2O2CH3C2NC2O2CH3C2NC2O2CH3C2NC2O2CH3C2NC2O2CH3C2NC2O2CH3C2NC2O2CH3C2NC2O2CH3C2NC2O2CH3C2NC2O2CH3C2NC2O2CH3C2NC2O2CH3NC18H12NC18H12NC18H12NC18H12NC18H12NC18H12NC18H12NC18H12NC18H12NC18H12NC18H12NC18H12C2NC2O2CH2C2NC2O2CH2C2NC2O2CH2C2NC2O2CH2C2NC2O2CH2C2NC2O2CH2NCHNCHNCHNCHNCHNCHNCHNCHNCHNCHNCHNCH
_chemical_formula_sum              "N48 C324 H216 O36"
_cell_length_a       64.0177
_cell_length_b       64.0178
_cell_length_c       14.7485
_cell_angle_alpha    90
_cell_angle_beta     90
_cell_angle_gamma    120

_space_group_name_H-M_alt    "P 1"
_space_group_IT_number       1

loop_
  _space_group_symop_operation_xyz
  'x, y, z'

loop_
  _atom_site_type_symbol
  _atom_site_label
  _atom_site_symmetry_multiplicity
  _atom_site_fract_x
  _atom_site_fract_y
  _atom_site_fract_z
  _atom_site_occupancy
  N   N1        1.0  0.21223  0.40469  0.27463  1.0000
  C   C1        1.0  0.19976  0.38025  0.26548  1.0000
  H   H1        1.0  0.19518  0.37335  0.20165  1.0000
  H   H2        1.0  0.21780  0.43413  0.00581  1.0000
  N   N2        1.0  0.60390  0.79902  0.27460  1.0000
  C   C2        1.0  0.62834  0.81101  0.26543  1.0000
  H   H3        1.0  0.63523  0.81330  0.20161  1.0000
  H   H4        1.0  0.57450  0.77520  0.00578  1.0000
  N   N3        1.0  0.20959  0.79642  0.27464  1.0000
  C   C3        1.0  0.19764  0.80891  0.26548  1.0000
  H   H5        1.0  0.19541  0.81357  0.20167  1.0000
  H   H6        1.0  0.23317  0.79099  0.00589  1.0000
  N   N4        1.0  0.80481  0.59537  0.27447  1.0000
  C   C4        1.0  0.81728  0.61981  0.26532  1.0000
  H   H7        1.0  0.82181  0.62670  0.20148  1.0000
  H   H8        1.0  0.79921  0.56635  0.00714  1.0000
  N   N5        1.0  0.41323  0.20103  0.27460  1.0000
  C   C5        1.0  0.38879  0.18905  0.26545  1.0000
  H   H9        1.0  0.38190  0.18674  0.20163  1.0000
  H   H10       1.0  0.44267  0.22488  0.00577  1.0000
  N   N6        1.0  0.80752  0.20369  0.27471  1.0000
  C   C6        1.0  0.81950  0.19123  0.26555  1.0000
  H   H11       1.0  0.82179  0.18662  0.20173  1.0000
  H   H12       1.0  0.78371  0.20931  0.00585  1.0000
  C   C7        1.0  0.21771  0.18211  0.33948  1.0000
  C   C8        1.0  0.19218  0.20833  0.35308  1.0000
  N   N7        1.0  0.20037  0.20429  0.27332  1.0000
  C   C9        1.0  0.21242  0.19187  0.26172  1.0000
  C   C10       1.0  0.22039  0.19127  0.17549  1.0000
  O   O1        1.0  0.20480  0.18340  0.11674  1.0000
  O   O2        1.0  0.24100  0.21106  0.15293  1.0000
  C   C11       1.0  0.25803  0.20578  0.11017  1.0000
  H   H13       1.0  0.27414  0.22285  0.09391  1.0000
  H   H14       1.0  0.25090  0.19576  0.04697  1.0000
  H   H15       1.0  0.26333  0.19570  0.15535  1.0000
  C   C12       1.0  0.82647  0.02713  0.33956  1.0000
  C   C13       1.0  0.80024  0.97539  0.35310  1.0000
  N   N8        1.0  0.80421  0.98762  0.27340  1.0000
  C   C14       1.0  0.81662  0.01209  0.26184  1.0000
  C   C15       1.0  0.81718  0.02066  0.17574  1.0000
  O   O3        1.0  0.82543  0.01318  0.11747  1.0000
  O   O4        1.0  0.79758  0.02154  0.15088  1.0000
  C   C16       1.0  0.80316  0.04409  0.10943  1.0000
  H   H16       1.0  0.78622  0.04315  0.09112  1.0000
  H   H17       1.0  0.81379  0.04743  0.04756  1.0000
  H   H18       1.0  0.81276  0.05919  0.15624  1.0000
  C   C17       1.0  0.98147  0.79086  0.33948  1.0000
  C   C18       1.0  0.03321  0.81639  0.35306  1.0000
  N   N9        1.0  0.02098  0.80817  0.27331  1.0000
  C   C19       1.0  0.99651  0.79609  0.26176  1.0000
  C   C20       1.0  0.98797  0.78817  0.17563  1.0000
  O   O5        1.0  0.99566  0.80353  0.11600  1.0000
  O   O6        1.0  0.98704  0.76757  0.15182  1.0000
  C   C21       1.0  0.96438  0.75040  0.11156  1.0000
  H   H19       1.0  0.96531  0.73436  0.09386  1.0000
  H   H20       1.0  0.96083  0.75745  0.04949  1.0000
  H   H21       1.0  0.94942  0.74503  0.15894  1.0000
  C   C22       1.0  0.79938  0.81795  0.33948  1.0000
  C   C23       1.0  0.82491  0.79174  0.35305  1.0000
  N   N10       1.0  0.81669  0.79575  0.27331  1.0000
  C   C24       1.0  0.80462  0.80815  0.26175  1.0000
  C   C25       1.0  0.79666  0.80873  0.17564  1.0000
  O   O7        1.0  0.81199  0.81635  0.11590  1.0000
  O   O8        1.0  0.77604  0.78904  0.15203  1.0000
  C   C26       1.0  0.75887  0.79452  0.11176  1.0000
  H   H22       1.0  0.74281  0.77753  0.09424  1.0000
  H   H23       1.0  0.76589  0.80508  0.04958  1.0000
  H   H24       1.0  0.75353  0.80415  0.15906  1.0000
  C   C27       1.0  0.19063  0.97297  0.33950  1.0000
  C   C28       1.0  0.21685  0.02471  0.35310  1.0000
  N   N11       1.0  0.21282  0.01248  0.27334  1.0000
  C   C29       1.0  0.20040  0.98801  0.26175  1.0000
  C   C30       1.0  0.19981  0.97944  0.17552  1.0000
  O   O9        1.0  0.19196  0.98716  0.11674  1.0000
  O   O10       1.0  0.21959  0.97860  0.15303  1.0000
  C   C31       1.0  0.21430  0.95628  0.11029  1.0000
  H   H25       1.0  0.23137  0.95723  0.09408  1.0000
  H   H26       1.0  0.20428  0.95339  0.04706  1.0000
  H   H27       1.0  0.20420  0.94090  0.15546  1.0000
  C   C32       1.0  0.03562  0.20920  0.33954  1.0000
  C   C33       1.0  0.98388  0.18368  0.35314  1.0000
  N   N12       1.0  0.99611  0.19196  0.27342  1.0000
  C   C34       1.0  0.02057  0.20401  0.26184  1.0000
  C   C35       1.0  0.02914  0.21203  0.17574  1.0000
  O   O11       1.0  0.02166  0.19630  0.11747  1.0000
  O   O12       1.0  0.03001  0.23250  0.15090  1.0000
  C   C36       1.0  0.05256  0.24947  0.10943  1.0000
  H   H28       1.0  0.05162  0.26548  0.09113  1.0000
  H   H29       1.0  0.05589  0.24218  0.04754  1.0000
  H   H30       1.0  0.06766  0.25498  0.15622  1.0000
  C   C37       1.0  0.24833  0.64095  0.33253  1.0000
  C   C38       1.0  0.24977  0.59741  0.35058  1.0000
  N   N13       1.0  0.24107  0.60295  0.27564  1.0000
  C   C39       1.0  0.23991  0.62343  0.26207  1.0000
  C   C40       1.0  0.22939  0.62521  0.18307  1.0000
  O   O13       1.0  0.23409  0.61795  0.11343  1.0000
  O   O14       1.0  0.20628  0.61941  0.19166  1.0000
  C   C41       1.0  0.19972  0.63411  0.13843  1.0000
  H   H31       1.0  0.18078  0.62808  0.15138  1.0000
  H   H32       1.0  0.20182  0.63216  0.06589  1.0000
  H   H33       1.0  0.21027  0.65312  0.15723  1.0000
  C   C42       1.0  0.36764  0.59885  0.33243  1.0000
  C   C43       1.0  0.41119  0.64382  0.35050  1.0000
  N   N14       1.0  0.40563  0.62958  0.27552  1.0000
  C   C44       1.0  0.38515  0.60796  0.26193  1.0000
  C   C45       1.0  0.38337  0.59564  0.18295  1.0000
  O   O15       1.0  0.39063  0.60760  0.11330  1.0000
  O   O16       1.0  0.38917  0.57834  0.19156  1.0000
  C   C46       1.0  0.37448  0.55708  0.13837  1.0000
  H   H34       1.0  0.38051  0.54417  0.15133  1.0000
  H   H35       1.0  0.37642  0.56112  0.06582  1.0000
  H   H36       1.0  0.35547  0.54862  0.15720  1.0000
  C   C47       1.0  0.40967  0.76016  0.33223  1.0000
  C   C48       1.0  0.36471  0.75879  0.35036  1.0000
  N   N15       1.0  0.37891  0.76738  0.27523  1.0000
  C   C49       1.0  0.40051  0.76848  0.26160  1.0000
  C   C50       1.0  0.41281  0.77892  0.18235  1.0000
  O   O17       1.0  0.40066  0.77346  0.11305  1.0000
  O   O18       1.0  0.42962  0.80217  0.19108  1.0000
  C   C51       1.0  0.45109  0.80913  0.13869  1.0000
  H   H37       1.0  0.46362  0.82818  0.15136  1.0000
  H   H38       1.0  0.44720  0.80682  0.06604  1.0000
  H   H39       1.0  0.45992  0.79899  0.15855  1.0000
  C   C52       1.0  0.76875  0.35909  0.33251  1.0000
  C   C53       1.0  0.76733  0.40265  0.35049  1.0000
  N   N16       1.0  0.77612  0.39714  0.27571  1.0000
  C   C54       1.0  0.77725  0.37665  0.26213  1.0000
  C   C55       1.0  0.78792  0.37488  0.18339  1.0000
  O   O19       1.0  0.78291  0.38201  0.11408  1.0000
  O   O20       1.0  0.81088  0.38027  0.19167  1.0000
  C   C56       1.0  0.81724  0.36576  0.13633  1.0000
  H   H40       1.0  0.83608  0.37138  0.14951  1.0000
  H   H41       1.0  0.81540  0.36838  0.06415  1.0000
  H   H42       1.0  0.80638  0.34662  0.15289  1.0000
  C   C57       1.0  0.64946  0.40119  0.33253  1.0000
  C   C58       1.0  0.60591  0.35619  0.35051  1.0000
  N   N17       1.0  0.61146  0.37045  0.27559  1.0000
  C   C59       1.0  0.63193  0.39209  0.26205  1.0000
  C   C60       1.0  0.63373  0.40441  0.18306  1.0000
  O   O21       1.0  0.62646  0.39245  0.11342  1.0000
  O   O22       1.0  0.62796  0.42173  0.19168  1.0000
  C   C61       1.0  0.64266  0.44298  0.13843  1.0000
  H   H43       1.0  0.63665  0.45591  0.15140  1.0000
  H   H44       1.0  0.64069  0.43892  0.06589  1.0000
  H   H45       1.0  0.66168  0.45142  0.15718  1.0000
  C   C62       1.0  0.60737  0.23973  0.33255  1.0000
  C   C63       1.0  0.65236  0.24118  0.35060  1.0000
  N   N18       1.0  0.63811  0.23248  0.27564  1.0000
  C   C64       1.0  0.61648  0.23133  0.26206  1.0000
  C   C65       1.0  0.60416  0.22078  0.18309  1.0000
  O   O23       1.0  0.61612  0.22546  0.11345  1.0000
  O   O24       1.0  0.58684  0.19769  0.19177  1.0000
  C   C66       1.0  0.56559  0.19113  0.13852  1.0000
  H   H46       1.0  0.55267  0.17220  0.15155  1.0000
  H   H47       1.0  0.56964  0.19320  0.06598  1.0000
  H   H48       1.0  0.55715  0.20170  0.15722  1.0000
  N   N19       1.0  0.14010  0.26079  0.35068  1.0000
  C   C67       1.0  0.11420  0.24788  0.34766  1.0000
  C   C68       1.0  0.15320  0.28662  0.34786  1.0000
  C   C69       1.0  0.15318  0.24802  0.35141  1.0000
  C   C70       1.0  0.16054  0.24185  0.27036  1.0000
  C   C71       1.0  0.17316  0.22898  0.27174  1.0000
  C   C72       1.0  0.17930  0.22169  0.35396  1.0000
  C   C73       1.0  0.17199  0.22836  0.43490  1.0000
  C   C74       1.0  0.15923  0.24112  0.43374  1.0000
  C   C75       1.0  0.10030  0.24912  0.41976  1.0000
  C   C76       1.0  0.07480  0.23653  0.41651  1.0000
  C   C77       1.0  0.06180  0.22197  0.34123  1.0000
  C   C78       1.0  0.07597  0.22027  0.27060  1.0000
  C   C79       1.0  0.10146  0.23314  0.27306  1.0000
  C   C80       1.0  0.15918  0.30037  0.42830  1.0000
  C   C81       1.0  0.17209  0.32586  0.42595  1.0000
  C   C82       1.0  0.17987  0.33903  0.34331  1.0000
  C   C83       1.0  0.17387  0.32484  0.26304  1.0000
  C   C84       1.0  0.16085  0.29933  0.26514  1.0000
  H   H49       1.0  0.06574  0.23843  0.47009  1.0000
  H   H50       1.0  0.10876  0.25936  0.47550  1.0000
  H   H51       1.0  0.11075  0.23146  0.21994  1.0000
  H   H52       1.0  0.06789  0.20915  0.21654  1.0000
  H   H53       1.0  0.15657  0.24662  0.20936  1.0000
  H   H54       1.0  0.17776  0.22487  0.21062  1.0000
  H   H55       1.0  0.15411  0.29180  0.48957  1.0000
  H   H56       1.0  0.17572  0.33474  0.48661  1.0000
  H   H57       1.0  0.17905  0.33283  0.20098  1.0000
  H   H58       1.0  0.15696  0.28995  0.20555  1.0000
  H   H59       1.0  0.15431  0.24541  0.49380  1.0000
  H   H60       1.0  0.17588  0.22409  0.49685  1.0000
  N   N20       1.0  0.74780  0.87085  0.35061  1.0000
  C   C85       1.0  0.76071  0.85785  0.34761  1.0000
  C   C86       1.0  0.72197  0.85812  0.34779  1.0000
  C   C87       1.0  0.76057  0.89670  0.35139  1.0000
  C   C88       1.0  0.76663  0.91023  0.27036  1.0000
  C   C89       1.0  0.77950  0.93573  0.27175  1.0000
  C   C90       1.0  0.78689  0.94914  0.35397  1.0000
  C   C91       1.0  0.78033  0.93516  0.43489  1.0000
  C   C92       1.0  0.76758  0.90964  0.43371  1.0000
  C   C93       1.0  0.75942  0.84268  0.41962  1.0000
  C   C94       1.0  0.77200  0.82975  0.41636  1.0000
  C   C95       1.0  0.78661  0.83136  0.34118  1.0000
  C   C96       1.0  0.78836  0.84728  0.27066  1.0000
  C   C97       1.0  0.77550  0.85990  0.27311  1.0000
  C   C98       1.0  0.70822  0.85040  0.42824  1.0000
  C   C99       1.0  0.68273  0.83781  0.42589  1.0000
  C   C100      1.0  0.66956  0.83236  0.34324  1.0000
  C   C101      1.0  0.68375  0.84050  0.26296  1.0000
  C   C102      1.0  0.70926  0.85299  0.26506  1.0000
  H   H61       1.0  0.77007  0.81876  0.46986  1.0000
  H   H62       1.0  0.74914  0.84086  0.47527  1.0000
  H   H63       1.0  0.77722  0.87092  0.22008  1.0000
  H   H64       1.0  0.79951  0.85034  0.21668  1.0000
  H   H65       1.0  0.76178  0.90149  0.20937  1.0000
  H   H66       1.0  0.78353  0.94443  0.21066  1.0000
  H   H67       1.0  0.71680  0.85395  0.48952  1.0000
  H   H68       1.0  0.67386  0.83261  0.48658  1.0000
  H   H69       1.0  0.67576  0.83764  0.20088  1.0000
  H   H70       1.0  0.71864  0.85844  0.20545  1.0000
  H   H71       1.0  0.76336  0.90043  0.49375  1.0000
  H   H72       1.0  0.78468  0.94332  0.49684  1.0000
  N   N21       1.0  0.13775  0.86849  0.35064  1.0000
  C   C103      1.0  0.15075  0.89439  0.34762  1.0000
  C   C104      1.0  0.15048  0.85538  0.34781  1.0000
  C   C105      1.0  0.11190  0.85540  0.35139  1.0000
  C   C106      1.0  0.09837  0.84797  0.27035  1.0000
  C   C107      1.0  0.07288  0.83535  0.27173  1.0000
  C   C108      1.0  0.05945  0.82928  0.35395  1.0000
  C   C109      1.0  0.07343  0.83667  0.43487  1.0000
  C   C110      1.0  0.09895  0.84944  0.43371  1.0000
  C   C111      1.0  0.16592  0.90828  0.41963  1.0000
  C   C112      1.0  0.17883  0.93378  0.41637  1.0000
  C   C113      1.0  0.17723  0.94678  0.34119  1.0000
  C   C114      1.0  0.16132  0.93262  0.27064  1.0000
  C   C115      1.0  0.14871  0.90713  0.27310  1.0000
  C   C116      1.0  0.15817  0.84932  0.42827  1.0000
  C   C117      1.0  0.17075  0.83641  0.42593  1.0000
  C   C118      1.0  0.17623  0.82872  0.34327  1.0000
  C   C119      1.0  0.16813  0.83481  0.26297  1.0000
  C   C120      1.0  0.15564  0.84783  0.26507  1.0000
  H   H73       1.0  0.18982  0.94285  0.46989  1.0000
  H   H74       1.0  0.16774  0.89982  0.47530  1.0000
  H   H75       1.0  0.13769  0.89783  0.22005  1.0000
  H   H76       1.0  0.15825  0.94070  0.21667  1.0000
  H   H77       1.0  0.10711  0.85188  0.20936  1.0000
  H   H78       1.0  0.06417  0.83069  0.21062  1.0000
  H   H79       1.0  0.15460  0.85433  0.48956  1.0000
  H   H80       1.0  0.17593  0.83272  0.48661  1.0000
  H   H81       1.0  0.17101  0.82970  0.20089  1.0000
  H   H82       1.0  0.15022  0.85179  0.20546  1.0000
  H   H83       1.0  0.10816  0.85441  0.49376  1.0000
  H   H84       1.0  0.06528  0.83284  0.49682  1.0000
  N   N22       1.0  0.87699  0.73927  0.35058  1.0000
  C   C121      1.0  0.90289  0.75218  0.34759  1.0000
  C   C122      1.0  0.86388  0.71344  0.34774  1.0000
  C   C123      1.0  0.86391  0.75204  0.35135  1.0000
  C   C124      1.0  0.85643  0.75810  0.27032  1.0000
  C   C125      1.0  0.84382  0.77098  0.27171  1.0000
  C   C126      1.0  0.83780  0.77838  0.35393  1.0000
  C   C127      1.0  0.84524  0.77184  0.43484  1.0000
  C   C128      1.0  0.85800  0.75908  0.43367  1.0000
  C   C129      1.0  0.91678  0.75089  0.41959  1.0000
  C   C130      1.0  0.94228  0.76348  0.41635  1.0000
  C   C131      1.0  0.95528  0.77809  0.34117  1.0000
  C   C132      1.0  0.94112  0.77985  0.27067  1.0000
  C   C133      1.0  0.91563  0.76698  0.27311  1.0000
  C   C134      1.0  0.85790  0.69969  0.42817  1.0000
  C   C135      1.0  0.84499  0.67420  0.42581  1.0000
  C   C136      1.0  0.83722  0.66103  0.34316  1.0000
  C   C137      1.0  0.84324  0.67522  0.26290  1.0000
  C   C138      1.0  0.85626  0.70074  0.26501  1.0000
  H   H85       1.0  0.95135  0.76153  0.46983  1.0000
  H   H86       1.0  0.90832  0.74060  0.47524  1.0000
  H   H87       1.0  0.90634  0.76871  0.22009  1.0000
  H   H88       1.0  0.94921  0.79101  0.21671  1.0000
  H   H89       1.0  0.86031  0.75324  0.20933  1.0000
  H   H90       1.0  0.83912  0.77499  0.21061  1.0000
  H   H91       1.0  0.86295  0.70826  0.48945  1.0000
  H   H92       1.0  0.84134  0.66532  0.48648  1.0000
  H   H93       1.0  0.83808  0.66724  0.20083  1.0000
  H   H94       1.0  0.86016  0.71011  0.20542  1.0000
  H   H95       1.0  0.86300  0.75487  0.49370  1.0000
  H   H96       1.0  0.84145  0.77620  0.49679  1.0000
  N   N23       1.0  0.26933  0.12926  0.35067  1.0000
  C   C139      1.0  0.25642  0.14225  0.34763  1.0000
  C   C140      1.0  0.29516  0.14198  0.34784  1.0000
  C   C141      1.0  0.25656  0.10340  0.35142  1.0000
  C   C142      1.0  0.25044  0.08987  0.27038  1.0000
  C   C143      1.0  0.23756  0.06438  0.27176  1.0000
  C   C144      1.0  0.23022  0.05096  0.35398  1.0000
  C   C145      1.0  0.23684  0.06494  0.43490  1.0000
  C   C146      1.0  0.24960  0.09045  0.43374  1.0000
  C   C147      1.0  0.25768  0.15741  0.41967  1.0000
  C   C148      1.0  0.24509  0.17031  0.41639  1.0000
  C   C149      1.0  0.23050  0.16872  0.34116  1.0000
  C   C150      1.0  0.22877  0.15282  0.27062  1.0000
  C   C151      1.0  0.24165  0.14021  0.27308  1.0000
  C   C152      1.0  0.30892  0.14977  0.42827  1.0000
  C   C153      1.0  0.33440  0.16234  0.42592  1.0000
  C   C154      1.0  0.34758  0.16773  0.34328  1.0000
  C   C155      1.0  0.33338  0.15953  0.26302  1.0000
  C   C156      1.0  0.30787  0.14703  0.26512  1.0000
  H   H97       1.0  0.24701  0.18130  0.46991  1.0000
  H   H98       1.0  0.26795  0.15922  0.47535  1.0000
  H   H99       1.0  0.23994  0.12920  0.22004  1.0000
  H   H100      1.0  0.21762  0.14974  0.21664  1.0000
  H   H101      1.0  0.25525  0.09861  0.20938  1.0000
  H   H102      1.0  0.23349  0.05567  0.21065  1.0000
  H   H103      1.0  0.30035  0.14627  0.48955  1.0000
  H   H104      1.0  0.34328  0.16760  0.48658  1.0000
  H   H105      1.0  0.34137  0.16232  0.20096  1.0000
  H   H106      1.0  0.29850  0.14153  0.20553  1.0000
  H   H107      1.0  0.25387  0.09967  0.49379  1.0000
  H   H108      1.0  0.23253  0.05678  0.49685  1.0000
  N   N24       1.0  0.87934  0.13161  0.35075  1.0000
  C   C157      1.0  0.86634  0.10571  0.34773  1.0000
  C   C158      1.0  0.86661  0.14471  0.34792  1.0000
  C   C159      1.0  0.90519  0.14469  0.35149  1.0000
  C   C160      1.0  0.91871  0.15216  0.27045  1.0000
  C   C161      1.0  0.94421  0.16478  0.27182  1.0000
  C   C162      1.0  0.95763  0.17080  0.35403  1.0000
  C   C163      1.0  0.94366  0.16338  0.43496  1.0000
  C   C164      1.0  0.91814  0.15062  0.43380  1.0000
  C   C165      1.0  0.85120  0.09181  0.41979  1.0000
  C   C166      1.0  0.83829  0.06631  0.41652  1.0000
  C   C167      1.0  0.83987  0.05331  0.34126  1.0000
  C   C168      1.0  0.85575  0.06748  0.27067  1.0000
  C   C169      1.0  0.86837  0.09297  0.27314  1.0000
  C   C170      1.0  0.85886  0.15071  0.42837  1.0000
  C   C171      1.0  0.84628  0.16362  0.42601  1.0000
  C   C172      1.0  0.84085  0.17137  0.34337  1.0000
  C   C173      1.0  0.84901  0.16534  0.26310  1.0000
  C   C174      1.0  0.86150  0.15231  0.26519  1.0000
  H   H109      1.0  0.82731  0.05724  0.47006  1.0000
  H   H110      1.0  0.84940  0.10027  0.47550  1.0000
  H   H111      1.0  0.87936  0.10228  0.22007  1.0000
  H   H112      1.0  0.85881  0.05941  0.21664  1.0000
  H   H113      1.0  0.90997  0.14827  0.20946  1.0000
  H   H114      1.0  0.95291  0.16945  0.21072  1.0000
  H   H115      1.0  0.86239  0.14567  0.48965  1.0000
  H   H116      1.0  0.84106  0.16728  0.48669  1.0000
  H   H117      1.0  0.84618  0.17049  0.20102  1.0000
  H   H118      1.0  0.86697  0.14841  0.20559  1.0000
  H   H119      1.0  0.90893  0.14563  0.49385  1.0000
  H   H120      1.0  0.95181  0.16718  0.49690  1.0000
  N   N25       1.0  0.27090  0.52128  0.34195  1.0000
  C   C175      1.0  0.29651  0.53600  0.33412  1.0000
  C   C176      1.0  0.25848  0.49543  0.34462  1.0000
  C   C177      1.0  0.25882  0.53488  0.34938  1.0000
  C   C178      1.0  0.25975  0.54663  0.43152  1.0000
  C   C179      1.0  0.25575  0.56639  0.43326  1.0000
  C   C180      1.0  0.25097  0.57550  0.35285  1.0000
  C   C181      1.0  0.24860  0.56252  0.27175  1.0000
  C   C182      1.0  0.25250  0.54273  0.26994  1.0000
  C   C183      1.0  0.31091  0.54366  0.41312  1.0000
  C   C184      1.0  0.33459  0.56351  0.41110  1.0000
  C   C185      1.0  0.34470  0.57689  0.33051  1.0000
  C   C186      1.0  0.33018  0.56895  0.25145  1.0000
  C   C187      1.0  0.30678  0.54865  0.25275  1.0000
  C   C188      1.0  0.26361  0.48289  0.41171  1.0000
  C   C189      1.0  0.25143  0.45742  0.41404  1.0000
  C   C190      1.0  0.23277  0.44311  0.35178  1.0000
  C   C191      1.0  0.22807  0.45588  0.28356  1.0000
  C   C192      1.0  0.24066  0.48137  0.27979  1.0000
  H   H121      1.0  0.34399  0.56883  0.47074  1.0000
  H   H122      1.0  0.30362  0.53596  0.47426  1.0000
  H   H123      1.0  0.29639  0.54457  0.19571  1.0000
  H   H124      1.0  0.33580  0.57877  0.19294  1.0000
  H   H125      1.0  0.26523  0.54205  0.48956  1.0000
  H   H126      1.0  0.25750  0.57466  0.49421  1.0000
  H   H127      1.0  0.27661  0.49226  0.45912  1.0000
  H   H128      1.0  0.25670  0.44947  0.46185  1.0000
  H   H129      1.0  0.21499  0.44667  0.23603  1.0000
  H   H130      1.0  0.23649  0.48969  0.22965  1.0000
  H   H131      1.0  0.25293  0.53551  0.20864  1.0000
  H   H132      1.0  0.24565  0.56834  0.21108  1.0000
  N   N26       1.0  0.48732  0.74108  0.34177  1.0000
  C   C193      1.0  0.47260  0.75198  0.33421  1.0000
  C   C194      1.0  0.51316  0.75451  0.34453  1.0000
  C   C195      1.0  0.47372  0.71540  0.34923  1.0000
  C   C196      1.0  0.46199  0.70456  0.43140  1.0000
  C   C197      1.0  0.44221  0.68082  0.43313  1.0000
  C   C198      1.0  0.43310  0.66693  0.35273  1.0000
  C   C199      1.0  0.44608  0.67752  0.27163  1.0000
  C   C200      1.0  0.46582  0.70124  0.26979  1.0000
  C   C201      1.0  0.46487  0.75867  0.41314  1.0000
  C   C202      1.0  0.44499  0.76245  0.41104  1.0000
  C   C203      1.0  0.43165  0.75921  0.33038  1.0000
  C   C204      1.0  0.43968  0.75274  0.25130  1.0000
  C   C205      1.0  0.45994  0.74957  0.25283  1.0000
  C   C206      1.0  0.52569  0.77218  0.41167  1.0000
  C   C207      1.0  0.55115  0.78547  0.41402  1.0000
  C   C208      1.0  0.56548  0.78115  0.35174  1.0000
  C   C209      1.0  0.55272  0.76367  0.28350  1.0000
  C   C210      1.0  0.52723  0.75076  0.27971  1.0000
  H   H133      1.0  0.43965  0.76650  0.47068  1.0000
  H   H134      1.0  0.47256  0.75908  0.47432  1.0000
  H   H135      1.0  0.46411  0.74338  0.19569  1.0000
  H   H136      1.0  0.42988  0.74851  0.19274  1.0000
  H   H137      1.0  0.46655  0.71464  0.48944  1.0000
  H   H138      1.0  0.43395  0.67431  0.49407  1.0000
  H   H139      1.0  0.51631  0.77578  0.45907  1.0000
  H   H140      1.0  0.55910  0.79869  0.46184  1.0000
  H   H141      1.0  0.56194  0.75982  0.23596  1.0000
  H   H142      1.0  0.51892  0.73828  0.22954  1.0000
  H   H143      1.0  0.47309  0.70887  0.20849  1.0000
  H   H144      1.0  0.44025  0.66875  0.21094  1.0000
  N   N27       1.0  0.26748  0.73771  0.34155  1.0000
  C   C211      1.0  0.25659  0.71209  0.33414  1.0000
  C   C212      1.0  0.25405  0.75012  0.34444  1.0000
  C   C213      1.0  0.29315  0.74980  0.34921  1.0000
  C   C214      1.0  0.30400  0.74892  0.43136  1.0000
  C   C215      1.0  0.32775  0.75288  0.43307  1.0000
  C   C216      1.0  0.34162  0.75763  0.35264  1.0000
  C   C217      1.0  0.33101  0.75999  0.27153  1.0000
  C   C218      1.0  0.30730  0.75604  0.26972  1.0000
  C   C219      1.0  0.24989  0.69769  0.41313  1.0000
  C   C220      1.0  0.24606  0.67401  0.41116  1.0000
  C   C221      1.0  0.24934  0.66390  0.33059  1.0000
  C   C222      1.0  0.25588  0.67840  0.25149  1.0000
  C   C223      1.0  0.25902  0.70181  0.25284  1.0000
  C   C224      1.0  0.23641  0.74500  0.41169  1.0000
  C   C225      1.0  0.22312  0.75717  0.41412  1.0000
  C   C226      1.0  0.22739  0.77579  0.35176  1.0000
  C   C227      1.0  0.24484  0.78049  0.28344  1.0000
  C   C228      1.0  0.25776  0.76792  0.27959  1.0000
  H   H145      1.0  0.24202  0.66463  0.47084  1.0000
  H   H146      1.0  0.24948  0.70498  0.47426  1.0000
  H   H147      1.0  0.26521  0.71215  0.19565  1.0000
  H   H148      1.0  0.26005  0.67277  0.19292  1.0000
  H   H149      1.0  0.29393  0.74341  0.48940  1.0000
  H   H150      1.0  0.33425  0.75112  0.49400  1.0000
  H   H151      1.0  0.23283  0.73202  0.45912  1.0000
  H   H152      1.0  0.20990  0.75187  0.46196  1.0000
  H   H153      1.0  0.24866  0.79354  0.23583  1.0000
  H   H154      1.0  0.27021  0.77207  0.22933  1.0000
  H   H155      1.0  0.29967  0.75567  0.20843  1.0000
  H   H156      1.0  0.33978  0.76293  0.21085  1.0000
  N   N28       1.0  0.74622  0.47878  0.34168  1.0000
  C   C229      1.0  0.72060  0.46405  0.33420  1.0000
  C   C230      1.0  0.75864  0.50462  0.34444  1.0000
  C   C231      1.0  0.75831  0.46519  0.34918  1.0000
  C   C232      1.0  0.75738  0.45343  0.43133  1.0000
  C   C233      1.0  0.76140  0.43369  0.43313  1.0000
  C   C234      1.0  0.76617  0.42458  0.35274  1.0000
  C   C235      1.0  0.76853  0.43753  0.27161  1.0000
  C   C236      1.0  0.76460  0.45731  0.26976  1.0000
  C   C237      1.0  0.70619  0.45637  0.41317  1.0000
  C   C238      1.0  0.68252  0.43650  0.41119  1.0000
  C   C239      1.0  0.67241  0.42312  0.33061  1.0000
  C   C240      1.0  0.68692  0.43107  0.25154  1.0000
  C   C241      1.0  0.71034  0.45134  0.25290  1.0000
  C   C242      1.0  0.75354  0.51716  0.41170  1.0000
  C   C243      1.0  0.76572  0.54262  0.41406  1.0000
  C   C244      1.0  0.78432  0.55695  0.35163  1.0000
  C   C245      1.0  0.78899  0.54418  0.28328  1.0000
  C   C246      1.0  0.77641  0.51869  0.27950  1.0000
  H   H157      1.0  0.67312  0.43120  0.47083  1.0000
  H   H158      1.0  0.71347  0.46409  0.47430  1.0000
  H   H159      1.0  0.72068  0.45549  0.19573  1.0000
  H   H160      1.0  0.68129  0.42127  0.19296  1.0000
  H   H161      1.0  0.75193  0.45805  0.48941  1.0000
  H   H162      1.0  0.75965  0.42543  0.49409  1.0000
  H   H163      1.0  0.74057  0.50777  0.45918  1.0000
  H   H164      1.0  0.76045  0.55056  0.46194  1.0000
  H   H165      1.0  0.80203  0.55340  0.23564  1.0000
  H   H166      1.0  0.78055  0.51038  0.22923  1.0000
  H   H167      1.0  0.76420  0.46454  0.20841  1.0000
  H   H168      1.0  0.77147  0.43169  0.21095  1.0000
  N   N29       1.0  0.52983  0.25895  0.34173  1.0000
  C   C247      1.0  0.54456  0.24805  0.33424  1.0000
  C   C248      1.0  0.50398  0.24553  0.34449  1.0000
  C   C249      1.0  0.54343  0.28463  0.34919  1.0000
  C   C250      1.0  0.55515  0.29544  0.43140  1.0000
  C   C251      1.0  0.57490  0.31920  0.43315  1.0000
  C   C252      1.0  0.58400  0.33309  0.35275  1.0000
  C   C253      1.0  0.57104  0.32249  0.27161  1.0000
  C   C254      1.0  0.55128  0.29878  0.26972  1.0000
  C   C255      1.0  0.55220  0.24131  0.41325  1.0000
  C   C256      1.0  0.57206  0.23749  0.41123  1.0000
  C   C257      1.0  0.58543  0.24073  0.33061  1.0000
  C   C258      1.0  0.57748  0.24731  0.25154  1.0000
  C   C259      1.0  0.55722  0.25047  0.25289  1.0000
  C   C260      1.0  0.49145  0.22787  0.41168  1.0000
  C   C261      1.0  0.46598  0.21460  0.41405  1.0000
  C   C262      1.0  0.45165  0.21891  0.35174  1.0000
  C   C263      1.0  0.46443  0.23637  0.28344  1.0000
  C   C264      1.0  0.48992  0.24926  0.27964  1.0000
  H   H169      1.0  0.57736  0.23340  0.47087  1.0000
  H   H170      1.0  0.54449  0.24090  0.47438  1.0000
  H   H171      1.0  0.55308  0.25668  0.19573  1.0000
  H   H172      1.0  0.58728  0.25147  0.19297  1.0000
  H   H173      1.0  0.55052  0.28538  0.48948  1.0000
  H   H174      1.0  0.58313  0.32573  0.49413  1.0000
  H   H175      1.0  0.50082  0.22426  0.45910  1.0000
  H   H176      1.0  0.45803  0.20138  0.46189  1.0000
  H   H177      1.0  0.45521  0.24021  0.23588  1.0000
  H   H178      1.0  0.49823  0.26173  0.22944  1.0000
  H   H179      1.0  0.54406  0.29114  0.20839  1.0000
  H   H180      1.0  0.57688  0.33126  0.21092  1.0000
  N   N30       1.0  0.74961  0.26237  0.34189  1.0000
  C   C265      1.0  0.76051  0.28799  0.33417  1.0000
  C   C266      1.0  0.76304  0.24995  0.34462  1.0000
  C   C267      1.0  0.72393  0.25029  0.34943  1.0000
  C   C268      1.0  0.71310  0.25116  0.43161  1.0000
  C   C269      1.0  0.68934  0.24715  0.43330  1.0000
  C   C270      1.0  0.67547  0.24240  0.35284  1.0000
  C   C271      1.0  0.68609  0.24007  0.27170  1.0000
  C   C272      1.0  0.70981  0.24404  0.26988  1.0000
  C   C273      1.0  0.76719  0.30236  0.41324  1.0000
  C   C274      1.0  0.77099  0.32603  0.41125  1.0000
  C   C275      1.0  0.76776  0.33616  0.33062  1.0000
  C   C276      1.0  0.76128  0.32167  0.25148  1.0000
  C   C277      1.0  0.75815  0.29827  0.25280  1.0000
  C   C278      1.0  0.78073  0.25510  0.41170  1.0000
  C   C279      1.0  0.79399  0.24291  0.41409  1.0000
  C   C280      1.0  0.78965  0.22424  0.35186  1.0000
  C   C281      1.0  0.77217  0.21953  0.28364  1.0000
  C   C282      1.0  0.75928  0.23212  0.27984  1.0000
  H   H181      1.0  0.77499  0.33540  0.47095  1.0000
  H   H182      1.0  0.76753  0.29504  0.47438  1.0000
  H   H183      1.0  0.75195  0.28791  0.19566  1.0000
  H   H184      1.0  0.75713  0.32731  0.19288  1.0000
  H   H185      1.0  0.72314  0.25657  0.48974  1.0000
  H   H186      1.0  0.68278  0.24881  0.49428  1.0000
  H   H187      1.0  0.78434  0.26810  0.45908  1.0000
  H   H188      1.0  0.80723  0.24820  0.46185  1.0000
  H   H189      1.0  0.76831  0.20645  0.23614  1.0000
  H   H190      1.0  0.74678  0.22794  0.22972  1.0000
  H   H191      1.0  0.71747  0.24449  0.20855  1.0000
  H   H192      1.0  0.67735  0.23720  0.21098  1.0000
  C   C283      1.0  0.21960  0.41697  0.35466  1.0000
  C   C284      1.0  0.19323  0.36526  0.34318  1.0000
  N   N31       1.0  0.20035  0.37768  0.42293  1.0000
  C   C285      1.0  0.21304  0.40218  0.43365  1.0000
  C   C286      1.0  0.21701  0.41096  0.52109  1.0000
  O   O25       1.0  0.22373  0.40119  0.57591  1.0000
  O   O26       1.0  0.20041  0.41605  0.55247  1.0000
  C   C287      1.0  0.20987  0.43680  0.61104  1.0000
  H   H193      1.0  0.19498  0.43946  0.63122  1.0000
  H   H194      1.0  0.22329  0.45313  0.57641  1.0000
  C   C288      1.0  0.59162  0.79413  0.35462  1.0000
  C   C289      1.0  0.64333  0.81949  0.34312  1.0000
  N   N32       1.0  0.63091  0.81420  0.42287  1.0000
  C   C290      1.0  0.60642  0.80241  0.43360  1.0000
  C   C291      1.0  0.59764  0.79758  0.52105  1.0000
  O   O27       1.0  0.60741  0.81409  0.57587  1.0000
  O   O28       1.0  0.59259  0.77590  0.55243  1.0000
  C   C292      1.0  0.57183  0.76459  0.61102  1.0000
  H   H195      1.0  0.56921  0.74706  0.63119  1.0000
  H   H196      1.0  0.55550  0.76166  0.57640  1.0000
  C   C293      1.0  0.21439  0.78893  0.35464  1.0000
  C   C294      1.0  0.18909  0.81535  0.34314  1.0000
  N   N33       1.0  0.19427  0.80812  0.42287  1.0000
  C   C295      1.0  0.20603  0.79538  0.43357  1.0000
  C   C296      1.0  0.21077  0.79130  0.52112  1.0000
  O   O29       1.0  0.19384  0.78394  0.57427  1.0000
  O   O30       1.0  0.23221  0.80829  0.55270  1.0000
  C   C297      1.0  0.24382  0.79921  0.61142  1.0000
  H   H197      1.0  0.26114  0.81436  0.63211  1.0000
  H   H198      1.0  0.24722  0.78613  0.57669  1.0000
  C   C298      1.0  0.79748  0.58308  0.35452  1.0000
  C   C299      1.0  0.82386  0.63480  0.34303  1.0000
  N   N34       1.0  0.81678  0.62238  0.42279  1.0000
  C   C300      1.0  0.80406  0.59788  0.43351  1.0000
  C   C301      1.0  0.80017  0.58905  0.52097  1.0000
  O   O31       1.0  0.79301  0.59874  0.57453  1.0000
  O   O32       1.0  0.81659  0.58386  0.55300  1.0000
  C   C302      1.0  0.80697  0.56331  0.61264  1.0000
  H   H199      1.0  0.82174  0.56051  0.63317  1.0000
  H   H200      1.0  0.79338  0.54694  0.57879  1.0000
  C   C303      1.0  0.42552  0.20594  0.35463  1.0000
  C   C304      1.0  0.37381  0.18059  0.34315  1.0000
  N   N35       1.0  0.38623  0.18590  0.42290  1.0000
  C   C305      1.0  0.41072  0.19770  0.43361  1.0000
  C   C306      1.0  0.41951  0.20252  0.52106  1.0000
  O   O33       1.0  0.40975  0.18600  0.57583  1.0000
  O   O34       1.0  0.42455  0.22418  0.55253  1.0000
  C   C307      1.0  0.44532  0.23550  0.61105  1.0000
  H   H201      1.0  0.44793  0.25302  0.63132  1.0000
  H   H202      1.0  0.46165  0.23845  0.57635  1.0000
  C   C308      1.0  0.80263  0.21109  0.35473  1.0000
  C   C309      1.0  0.82799  0.18473  0.34325  1.0000
  N   N36       1.0  0.82271  0.19187  0.42299  1.0000
  C   C310      1.0  0.81092  0.20458  0.43371  1.0000
  C   C311      1.0  0.80609  0.20852  0.52117  1.0000
  O   O35       1.0  0.82260  0.21528  0.57597  1.0000
  O   O36       1.0  0.78442  0.19191  0.55257  1.0000
  C   C312      1.0  0.77310  0.20135  0.61110  1.0000
  H   H203      1.0  0.75557  0.18644  0.63132  1.0000
  H   H204      1.0  0.77016  0.21474  0.57643  1.0000
  N   N37       1.0  0.20977  0.18629  0.41965  1.0000
  C   C313      1.0  0.19759  0.19855  0.42978  1.0000
  H   H205      1.0  0.19251  0.20020  0.49359  1.0000
  N   N38       1.0  0.82236  0.01501  0.41969  1.0000
  C   C314      1.0  0.81011  0.99058  0.42978  1.0000
  H   H206      1.0  0.80852  0.98384  0.49355  1.0000
  N   N39       1.0  0.99359  0.79882  0.41964  1.0000
  C   C315      1.0  0.01802  0.81100  0.42976  1.0000
  H   H207      1.0  0.02475  0.81611  0.49355  1.0000
  N   N40       1.0  0.80735  0.81380  0.41964  1.0000
  C   C316      1.0  0.81952  0.80154  0.42974  1.0000
  H   H208      1.0  0.82463  0.79992  0.49355  1.0000
  N   N41       1.0  0.19481  0.98509  0.41967  1.0000
  C   C317      1.0  0.20707  0.00952  0.42979  1.0000
  H   H209      1.0  0.20872  0.01625  0.49361  1.0000
  N   N42       1.0  0.02350  0.20118  0.41968  1.0000
  C   C318      1.0  0.99907  0.18901  0.42980  1.0000
  H   H210      1.0  0.99234  0.18385  0.49357  1.0000
  N   N43       1.0  0.25714  0.63557  0.40766  1.0000
  C   C319      1.0  0.25815  0.61507  0.41978  1.0000
  H   H211      1.0  0.26573  0.61338  0.47807  1.0000
  N   N44       1.0  0.37304  0.61302  0.40761  1.0000
  C   C320      1.0  0.39354  0.63453  0.41973  1.0000
  H   H212      1.0  0.39524  0.64379  0.47803  1.0000
  N   N45       1.0  0.39554  0.75150  0.40757  1.0000
  C   C321      1.0  0.37404  0.75050  0.41970  1.0000
  H   H213      1.0  0.36484  0.74306  0.47824  1.0000
  N   N46       1.0  0.75989  0.36446  0.40752  1.0000
  C   C322      1.0  0.75887  0.38495  0.41957  1.0000
  H   H214      1.0  0.75127  0.38664  0.47780  1.0000
  N   N47       1.0  0.64406  0.38699  0.40765  1.0000
  C   C323      1.0  0.62356  0.36548  0.41974  1.0000
  H   H215      1.0  0.62187  0.35621  0.47802  1.0000
  N   N48       1.0  0.62156  0.24854  0.40768  1.0000
  C   C324      1.0  0.64307  0.24955  0.41980  1.0000
  H   H216      1.0  0.65234  0.25714  0.47806  1.0000
