data_image0
_chemical_formula_structural       C2HC3NO2C2HOC4H2C2HOC3NO2C2HC3NO2C2HOC4H2C2HOC3NO2C2H2CHOCNO2HC3HC4H2CNO2HOC2H2CHOCNO2HC3HC4H2CNO2HOCHC3HC3HNOC3HNOC4HCHC3H2C3HNOC3HNOCHC3HC3HNOC3HNOC4HCHC3H2C3HNOC3HNOC2HC4HNO2C3HNO2C4H2C4HNO2C3HNO2C2HC4HNO2C3HNO2C4H2C4HNO2C3HNO2C2HC2HC2HC2HC2HC2HC3HNO2C3HNO2C3HNO2C3HNO2C3HNO2C3HNO2C4H2C4H2C4H2C4H2C4H2C4H2C3HNO2C3HNO2C3HNO2C3HNO2C3HNO2C3HNO2C2HC2HC2HC2HC2HC2HC3HNO2C3HNO2C3HNO2C3HNO2C3HNO2C3HNO2C4H2C4H2C4H2C4H2C4H2C4H2C3HNO2C3HNO2C3HNO2C3HNO2C3HNO2C3HNO2
_chemical_formula_sum              "C288 H120 N48 O96"
_cell_length_a       46.8786
_cell_length_b       46.8786
_cell_length_c       14.8031
_cell_angle_alpha    90
_cell_angle_beta     90
_cell_angle_gamma    120

_space_group_name_H-M_alt    "P 1"
_space_group_IT_number       1

loop_
  _space_group_symop_operation_xyz
  'x, y, z'

loop_
  _atom_site_type_symbol
  _atom_site_label
  _atom_site_symmetry_multiplicity
  _atom_site_fract_x
  _atom_site_fract_y
  _atom_site_fract_z
  _atom_site_occupancy
  C   C1        1.0  0.04706  0.30093  0.34832  1.0000
  C   C2        1.0  0.08195  0.31879  0.34821  1.0000
  H   H1        1.0  0.03610  0.31492  0.34944  1.0000
  C   C3        1.0  0.10145  0.25111  0.34616  1.0000
  C   C4        1.0  0.11764  0.25148  0.26465  1.0000
  C   C5        1.0  0.14751  0.25074  0.26749  1.0000
  N   N1        1.0  0.10500  0.25540  0.18146  1.0000
  O   O1        1.0  0.09843  0.23195  0.12859  1.0000
  O   O2        1.0  0.12489  0.28198  0.14315  1.0000
  C   C6        1.0  0.14711  0.39895  0.26461  1.0000
  C   C7        1.0  0.11648  0.36910  0.26746  1.0000
  H   H2        1.0  0.10717  0.35664  0.20808  1.0000
  O   O3        1.0  0.14684  0.41806  0.12836  1.0000
  C   C8        1.0  0.02788  0.26559  0.34759  1.0000
  C   C9        1.0  0.09888  0.30111  0.34794  1.0000
  C   C10       1.0  0.08198  0.26650  0.34731  1.0000
  C   C11       1.0  0.04709  0.24945  0.34695  1.0000
  H   H3        1.0  0.12419  0.31377  0.34811  1.0000
  H   H4        1.0  0.03614  0.22449  0.34586  1.0000
  C   C12       1.0  0.14715  0.25147  0.43143  1.0000
  C   C13       1.0  0.11657  0.25079  0.42858  1.0000
  H   H5        1.0  0.10718  0.25384  0.48794  1.0000
  O   O4        1.0  0.14686  0.23200  0.56754  1.0000
  C   C14       1.0  0.10136  0.35363  0.34993  1.0000
  C   C15       1.0  0.11762  0.36952  0.43125  1.0000
  C   C16       1.0  0.14745  0.40015  0.42835  1.0000
  N   N2        1.0  0.10503  0.35294  0.51442  1.0000
  O   O5        1.0  0.09846  0.36979  0.56741  1.0000
  O   O6        1.0  0.12496  0.34626  0.55257  1.0000
  C   C17       1.0  0.04706  0.80093  0.34832  1.0000
  C   C18       1.0  0.08195  0.81879  0.34821  1.0000
  H   H6        1.0  0.03610  0.81492  0.34944  1.0000
  C   C19       1.0  0.10145  0.75111  0.34616  1.0000
  C   C20       1.0  0.11764  0.75148  0.26465  1.0000
  C   C21       1.0  0.14751  0.75074  0.26749  1.0000
  N   N3        1.0  0.10500  0.75540  0.18146  1.0000
  O   O7        1.0  0.09843  0.73194  0.12859  1.0000
  O   O8        1.0  0.12488  0.78198  0.14315  1.0000
  C   C22       1.0  0.14712  0.89895  0.26461  1.0000
  C   C23       1.0  0.11648  0.86910  0.26746  1.0000
  H   H7        1.0  0.10717  0.85664  0.20808  1.0000
  O   O9        1.0  0.14685  0.91806  0.12836  1.0000
  C   C24       1.0  0.02788  0.76559  0.34759  1.0000
  C   C25       1.0  0.09888  0.80111  0.34794  1.0000
  C   C26       1.0  0.08198  0.76650  0.34731  1.0000
  C   C27       1.0  0.04709  0.74945  0.34695  1.0000
  H   H8        1.0  0.12419  0.81377  0.34811  1.0000
  H   H9        1.0  0.03614  0.72449  0.34586  1.0000
  C   C28       1.0  0.14715  0.75147  0.43143  1.0000
  C   C29       1.0  0.11658  0.75079  0.42858  1.0000
  H   H10       1.0  0.10718  0.75384  0.48794  1.0000
  O   O10       1.0  0.14686  0.73200  0.56754  1.0000
  C   C30       1.0  0.10136  0.85363  0.34993  1.0000
  C   C31       1.0  0.11762  0.86952  0.43125  1.0000
  C   C32       1.0  0.14745  0.90016  0.42835  1.0000
  N   N4        1.0  0.10503  0.85293  0.51442  1.0000
  O   O11       1.0  0.09846  0.86979  0.56741  1.0000
  O   O12       1.0  0.12496  0.84627  0.55257  1.0000
  C   C33       1.0  0.21566  0.24942  0.34857  1.0000
  C   C34       1.0  0.19781  0.26646  0.34838  1.0000
  H   H11       1.0  0.20166  0.22446  0.34976  1.0000
  H   H12       1.0  0.22784  0.03283  0.34953  1.0000
  C   C35       1.0  0.25014  0.43472  0.34824  1.0000
  H   H13       1.0  0.15995  0.25379  0.20812  1.0000
  O   O13       1.0  0.23491  0.34634  0.14296  1.0000
  C   C36       1.0  0.16301  0.41526  0.34596  1.0000
  N   N5        1.0  0.16370  0.41151  0.18141  1.0000
  O   O14       1.0  0.17038  0.39158  0.14331  1.0000
  O   O15       1.0  0.23544  0.14351  0.12821  1.0000
  H   H14       1.0  0.22782  0.19834  0.34596  1.0000
  C   C37       1.0  0.25101  0.26557  0.34779  1.0000
  C   C38       1.0  0.21551  0.30107  0.34800  1.0000
  C   C39       1.0  0.25011  0.31875  0.34746  1.0000
  H   H15       1.0  0.20286  0.31373  0.34807  1.0000
  C   C40       1.0  0.25104  0.48879  0.34759  1.0000
  C   C41       1.0  0.21554  0.41780  0.34774  1.0000
  C   C42       1.0  0.19785  0.43472  0.34717  1.0000
  C   C43       1.0  0.21569  0.46960  0.34696  1.0000
  H   H16       1.0  0.20288  0.39249  0.34781  1.0000
  H   H17       1.0  0.20169  0.48056  0.34588  1.0000
  C   C44       1.0  0.16295  0.25106  0.34997  1.0000
  N   N6        1.0  0.16375  0.25542  0.51456  1.0000
  O   O16       1.0  0.17048  0.28203  0.55276  1.0000
  O   O17       1.0  0.23425  0.39157  0.55215  1.0000
  H   H18       1.0  0.15992  0.40950  0.48769  1.0000
  O   O18       1.0  0.23521  0.09514  0.56730  1.0000
  C   C45       1.0  0.21566  0.74942  0.34857  1.0000
  C   C46       1.0  0.19781  0.76646  0.34838  1.0000
  H   H19       1.0  0.20166  0.72446  0.34976  1.0000
  H   H20       1.0  0.22784  0.53283  0.34953  1.0000
  C   C47       1.0  0.25014  0.93472  0.34824  1.0000
  H   H21       1.0  0.15995  0.75379  0.20812  1.0000
  O   O19       1.0  0.23491  0.84634  0.14296  1.0000
  C   C48       1.0  0.16301  0.91526  0.34596  1.0000
  N   N7        1.0  0.16370  0.91151  0.18141  1.0000
  O   O20       1.0  0.17038  0.89158  0.14331  1.0000
  O   O21       1.0  0.23544  0.64351  0.12821  1.0000
  H   H22       1.0  0.22782  0.69834  0.34596  1.0000
  C   C49       1.0  0.25101  0.76557  0.34779  1.0000
  C   C50       1.0  0.21551  0.80107  0.34800  1.0000
  C   C51       1.0  0.25011  0.81875  0.34746  1.0000
  H   H23       1.0  0.20286  0.81373  0.34807  1.0000
  C   C52       1.0  0.25104  0.98879  0.34759  1.0000
  C   C53       1.0  0.21553  0.91780  0.34774  1.0000
  C   C54       1.0  0.19785  0.93471  0.34717  1.0000
  C   C55       1.0  0.21569  0.96960  0.34696  1.0000
  H   H24       1.0  0.20288  0.89249  0.34781  1.0000
  H   H25       1.0  0.20169  0.98056  0.34588  1.0000
  C   C56       1.0  0.16295  0.75106  0.34997  1.0000
  N   N8        1.0  0.16375  0.75542  0.51456  1.0000
  O   O22       1.0  0.17048  0.78203  0.55276  1.0000
  O   O23       1.0  0.23425  0.89157  0.55215  1.0000
  H   H26       1.0  0.15992  0.90950  0.48769  1.0000
  O   O24       1.0  0.23521  0.59514  0.56730  1.0000
  C   C57       1.0  0.30427  0.26384  0.34847  1.0000
  H   H27       1.0  0.31827  0.28880  0.34982  1.0000
  C   C58       1.0  0.26984  0.07867  0.34829  1.0000
  C   C59       1.0  0.25279  0.04378  0.34841  1.0000
  C   C60       1.0  0.26719  0.46960  0.34829  1.0000
  H   H28       1.0  0.29214  0.48055  0.34938  1.0000
  C   C61       1.0  0.26552  0.35359  0.34599  1.0000
  C   C62       1.0  0.26531  0.36955  0.26463  1.0000
  C   C63       1.0  0.26606  0.40017  0.26741  1.0000
  H   H29       1.0  0.26309  0.40957  0.20797  1.0000
  N   N9        1.0  0.26145  0.35302  0.18144  1.0000
  O   O25       1.0  0.28496  0.36991  0.12871  1.0000
  C   C64       1.0  0.25442  0.15965  0.34584  1.0000
  C   C65       1.0  0.25489  0.14386  0.26441  1.0000
  C   C66       1.0  0.25417  0.11326  0.26739  1.0000
  H   H30       1.0  0.25726  0.10388  0.20806  1.0000
  N   N10       1.0  0.25886  0.16041  0.18119  1.0000
  O   O26       1.0  0.28547  0.16712  0.14306  1.0000
  C   C67       1.0  0.26892  0.24768  0.34774  1.0000
  C   C68       1.0  0.25278  0.21234  0.34701  1.0000
  C   C69       1.0  0.26983  0.19451  0.34702  1.0000
  C   C70       1.0  0.30444  0.21221  0.34744  1.0000
  H   H31       1.0  0.31710  0.19955  0.34744  1.0000
  C   C71       1.0  0.26716  0.30091  0.34701  1.0000
  H   H32       1.0  0.29211  0.31491  0.34572  1.0000
  C   C72       1.0  0.26894  0.02459  0.34761  1.0000
  C   C73       1.0  0.30428  0.04378  0.34687  1.0000
  C   C74       1.0  0.30445  0.09559  0.34798  1.0000
  H   H33       1.0  0.31828  0.03282  0.34564  1.0000
  H   H34       1.0  0.31711  0.12089  0.34811  1.0000
  C   C75       1.0  0.26553  0.41527  0.34970  1.0000
  C   C76       1.0  0.26499  0.39893  0.43109  1.0000
  C   C77       1.0  0.26573  0.36907  0.42831  1.0000
  H   H35       1.0  0.26254  0.35661  0.48774  1.0000
  N   N11       1.0  0.26091  0.41149  0.51424  1.0000
  O   O27       1.0  0.28425  0.41800  0.56747  1.0000
  C   C78       1.0  0.25443  0.09810  0.34990  1.0000
  C   C79       1.0  0.25474  0.11433  0.43125  1.0000
  C   C80       1.0  0.25402  0.14420  0.42832  1.0000
  H   H36       1.0  0.25701  0.15664  0.48767  1.0000
  N   N12       1.0  0.25866  0.10170  0.51443  1.0000
  O   O28       1.0  0.28524  0.12159  0.55273  1.0000
  C   C81       1.0  0.30427  0.76384  0.34847  1.0000
  H   H37       1.0  0.31827  0.78880  0.34982  1.0000
  C   C82       1.0  0.26984  0.57867  0.34829  1.0000
  C   C83       1.0  0.25279  0.54378  0.34841  1.0000
  C   C84       1.0  0.26719  0.96960  0.34829  1.0000
  H   H38       1.0  0.29214  0.98055  0.34938  1.0000
  C   C85       1.0  0.26552  0.85359  0.34599  1.0000
  C   C86       1.0  0.26531  0.86955  0.26463  1.0000
  C   C87       1.0  0.26606  0.90016  0.26741  1.0000
  H   H39       1.0  0.26309  0.90957  0.20797  1.0000
  N   N13       1.0  0.26146  0.85302  0.18144  1.0000
  O   O29       1.0  0.28496  0.86991  0.12871  1.0000
  C   C88       1.0  0.25442  0.65965  0.34584  1.0000
  C   C89       1.0  0.25489  0.64385  0.26441  1.0000
  C   C90       1.0  0.25417  0.61326  0.26739  1.0000
  H   H40       1.0  0.25726  0.60388  0.20806  1.0000
  N   N14       1.0  0.25886  0.66041  0.18119  1.0000
  O   O30       1.0  0.28547  0.66712  0.14306  1.0000
  C   C91       1.0  0.26892  0.74768  0.34774  1.0000
  C   C92       1.0  0.25278  0.71235  0.34701  1.0000
  C   C93       1.0  0.26983  0.69451  0.34702  1.0000
  C   C94       1.0  0.30444  0.71220  0.34744  1.0000
  H   H41       1.0  0.31710  0.69955  0.34744  1.0000
  C   C95       1.0  0.26716  0.80091  0.34701  1.0000
  H   H42       1.0  0.29211  0.81491  0.34572  1.0000
  C   C96       1.0  0.26894  0.52459  0.34761  1.0000
  C   C97       1.0  0.30428  0.54378  0.34687  1.0000
  C   C98       1.0  0.30445  0.59559  0.34798  1.0000
  H   H43       1.0  0.31828  0.53282  0.34564  1.0000
  H   H44       1.0  0.31711  0.62089  0.34811  1.0000
  C   C99       1.0  0.26553  0.91527  0.34970  1.0000
  C   C100      1.0  0.26499  0.89893  0.43109  1.0000
  C   C101      1.0  0.26573  0.86907  0.42831  1.0000
  H   H45       1.0  0.26254  0.85661  0.48774  1.0000
  N   N15       1.0  0.26091  0.91148  0.51424  1.0000
  O   O31       1.0  0.28425  0.91800  0.56747  1.0000
  C   C102      1.0  0.25443  0.59810  0.34990  1.0000
  C   C103      1.0  0.25474  0.61433  0.43125  1.0000
  C   C104      1.0  0.25402  0.64420  0.42832  1.0000
  H   H46       1.0  0.25701  0.65664  0.48767  1.0000
  N   N16       1.0  0.25866  0.60170  0.51443  1.0000
  O   O32       1.0  0.28524  0.62159  0.55273  1.0000
  C   C105      1.0  0.43800  0.19450  0.34857  1.0000
  C   C106      1.0  0.47288  0.21234  0.34828  1.0000
  H   H47       1.0  0.48385  0.19834  0.34914  1.0000
  C   C107      1.0  0.32213  0.24681  0.34801  1.0000
  C   C108      1.0  0.41852  0.26217  0.34638  1.0000
  C   C109      1.0  0.40234  0.26177  0.26479  1.0000
  C   C110      1.0  0.37249  0.26256  0.26737  1.0000
  H   H48       1.0  0.36006  0.25941  0.20791  1.0000
  N   N17       1.0  0.41500  0.25782  0.18168  1.0000
  O   O33       1.0  0.42161  0.28126  0.12872  1.0000
  O   O34       1.0  0.39512  0.23123  0.14341  1.0000
  C   C111      1.0  0.35699  0.09809  0.34605  1.0000
  C   C112      1.0  0.37291  0.11418  0.26459  1.0000
  C   C113      1.0  0.40353  0.14404  0.26746  1.0000
  H   H49       1.0  0.41298  0.15643  0.20807  1.0000
  N   N18       1.0  0.35641  0.10146  0.18139  1.0000
  O   O35       1.0  0.37332  0.09484  0.12881  1.0000
  O   O36       1.0  0.34976  0.12133  0.14275  1.0000
  C   C114      1.0  0.49208  0.24769  0.34764  1.0000
  C   C115      1.0  0.47288  0.26383  0.34709  1.0000
  C   C116      1.0  0.43799  0.24679  0.34759  1.0000
  C   C117      1.0  0.42108  0.21219  0.34831  1.0000
  H   H50       1.0  0.48383  0.28879  0.34593  1.0000
  H   H51       1.0  0.39577  0.19953  0.34849  1.0000
  C   C118      1.0  0.32214  0.07866  0.34737  1.0000
  C   C119      1.0  0.35698  0.26223  0.34974  1.0000
  C   C120      1.0  0.37274  0.26187  0.43131  1.0000
  C   C121      1.0  0.40332  0.26255  0.42863  1.0000
  H   H52       1.0  0.41269  0.25952  0.48809  1.0000
  N   N19       1.0  0.35612  0.25794  0.51436  1.0000
  O   O37       1.0  0.37298  0.28138  0.56730  1.0000
  O   O38       1.0  0.34937  0.23135  0.55267  1.0000
  C   C122      1.0  0.41854  0.15965  0.34984  1.0000
  C   C123      1.0  0.40220  0.14391  0.43132  1.0000
  C   C124      1.0  0.37234  0.11330  0.42852  1.0000
  H   H53       1.0  0.35984  0.10403  0.48788  1.0000
  N   N20       1.0  0.41474  0.16055  0.51446  1.0000
  O   O39       1.0  0.42124  0.14372  0.56772  1.0000
  O   O40       1.0  0.39482  0.16730  0.55234  1.0000
  C   C125      1.0  0.43800  0.69450  0.34857  1.0000
  C   C126      1.0  0.47288  0.71234  0.34828  1.0000
  H   H54       1.0  0.48384  0.69834  0.34914  1.0000
  C   C127      1.0  0.32213  0.74681  0.34801  1.0000
  C   C128      1.0  0.41852  0.76217  0.34638  1.0000
  C   C129      1.0  0.40234  0.76178  0.26479  1.0000
  C   C130      1.0  0.37249  0.76256  0.26737  1.0000
  H   H55       1.0  0.36006  0.75941  0.20791  1.0000
  N   N21       1.0  0.41500  0.75782  0.18168  1.0000
  O   O41       1.0  0.42161  0.78126  0.12872  1.0000
  O   O42       1.0  0.39512  0.73123  0.14341  1.0000
  C   C131      1.0  0.35699  0.59809  0.34605  1.0000
  C   C132      1.0  0.37291  0.61418  0.26459  1.0000
  C   C133      1.0  0.40353  0.64404  0.26746  1.0000
  H   H56       1.0  0.41298  0.65643  0.20807  1.0000
  N   N22       1.0  0.35641  0.60146  0.18139  1.0000
  O   O43       1.0  0.37332  0.59484  0.12881  1.0000
  O   O44       1.0  0.34976  0.62133  0.14275  1.0000
  C   C134      1.0  0.49208  0.74769  0.34764  1.0000
  C   C135      1.0  0.47288  0.76384  0.34709  1.0000
  C   C136      1.0  0.43799  0.74679  0.34759  1.0000
  C   C137      1.0  0.42108  0.71219  0.34831  1.0000
  H   H57       1.0  0.48383  0.78879  0.34593  1.0000
  H   H58       1.0  0.39577  0.69953  0.34849  1.0000
  C   C138      1.0  0.32214  0.57866  0.34737  1.0000
  C   C139      1.0  0.35698  0.76223  0.34974  1.0000
  C   C140      1.0  0.37275  0.76186  0.43131  1.0000
  C   C141      1.0  0.40333  0.76255  0.42863  1.0000
  H   H59       1.0  0.41269  0.75952  0.48809  1.0000
  N   N23       1.0  0.35612  0.75794  0.51436  1.0000
  O   O45       1.0  0.37298  0.78138  0.56730  1.0000
  O   O46       1.0  0.34937  0.73135  0.55267  1.0000
  C   C142      1.0  0.41854  0.65965  0.34984  1.0000
  C   C143      1.0  0.40220  0.64392  0.43132  1.0000
  C   C144      1.0  0.37234  0.61330  0.42852  1.0000
  H   H60       1.0  0.35984  0.60403  0.48788  1.0000
  N   N24       1.0  0.41474  0.66055  0.51446  1.0000
  O   O47       1.0  0.42124  0.64372  0.56772  1.0000
  O   O48       1.0  0.39482  0.66730  0.55234  1.0000
  C   C145      1.0  0.93800  0.19450  0.34857  1.0000
  C   C146      1.0  0.97288  0.21234  0.34828  1.0000
  H   H61       1.0  0.98384  0.19834  0.34914  1.0000
  C   C147      1.0  0.54706  0.30093  0.34832  1.0000
  C   C148      1.0  0.58195  0.31879  0.34821  1.0000
  H   H62       1.0  0.53610  0.31492  0.34944  1.0000
  C   C149      1.0  0.82213  0.24681  0.34801  1.0000
  C   C150      1.0  0.80427  0.26384  0.34847  1.0000
  H   H63       1.0  0.81827  0.28880  0.34982  1.0000
  C   C151      1.0  0.71566  0.24942  0.34857  1.0000
  C   C152      1.0  0.69781  0.26646  0.34838  1.0000
  H   H64       1.0  0.70166  0.22446  0.34976  1.0000
  C   C153      1.0  0.76984  0.07867  0.34829  1.0000
  C   C154      1.0  0.75280  0.04378  0.34841  1.0000
  H   H65       1.0  0.72783  0.03283  0.34953  1.0000
  C   C155      1.0  0.76719  0.46960  0.34829  1.0000
  C   C156      1.0  0.75014  0.43472  0.34824  1.0000
  H   H66       1.0  0.79214  0.48055  0.34938  1.0000
  C   C157      1.0  0.60145  0.25111  0.34616  1.0000
  C   C158      1.0  0.61764  0.25148  0.26465  1.0000
  C   C159      1.0  0.64750  0.25074  0.26749  1.0000
  H   H67       1.0  0.65995  0.25379  0.20812  1.0000
  N   N25       1.0  0.60500  0.25540  0.18146  1.0000
  O   O49       1.0  0.59843  0.23195  0.12859  1.0000
  O   O50       1.0  0.62489  0.28198  0.14315  1.0000
  C   C160      1.0  0.76552  0.35359  0.34599  1.0000
  C   C161      1.0  0.76531  0.36955  0.26463  1.0000
  C   C162      1.0  0.76606  0.40017  0.26741  1.0000
  H   H68       1.0  0.76309  0.40957  0.20797  1.0000
  N   N26       1.0  0.76146  0.35302  0.18144  1.0000
  O   O51       1.0  0.78496  0.36991  0.12871  1.0000
  O   O52       1.0  0.73491  0.34634  0.14296  1.0000
  C   C163      1.0  0.66301  0.41526  0.34596  1.0000
  C   C164      1.0  0.64711  0.39895  0.26461  1.0000
  C   C165      1.0  0.61648  0.36910  0.26746  1.0000
  H   H69       1.0  0.60717  0.35664  0.20808  1.0000
  N   N27       1.0  0.66370  0.41151  0.18141  1.0000
  O   O53       1.0  0.64684  0.41806  0.12836  1.0000
  O   O54       1.0  0.67038  0.39158  0.14331  1.0000
  C   C166      1.0  0.91852  0.26217  0.34638  1.0000
  C   C167      1.0  0.90234  0.26177  0.26479  1.0000
  C   C168      1.0  0.87249  0.26256  0.26737  1.0000
  H   H70       1.0  0.86006  0.25941  0.20791  1.0000
  N   N28       1.0  0.91500  0.25782  0.18168  1.0000
  O   O55       1.0  0.92161  0.28126  0.12872  1.0000
  O   O56       1.0  0.89512  0.23123  0.14341  1.0000
  C   C169      1.0  0.75442  0.15965  0.34584  1.0000
  C   C170      1.0  0.75489  0.14386  0.26441  1.0000
  C   C171      1.0  0.75417  0.11326  0.26739  1.0000
  H   H71       1.0  0.75726  0.10388  0.20806  1.0000
  N   N29       1.0  0.75886  0.16041  0.18119  1.0000
  O   O57       1.0  0.73545  0.14351  0.12821  1.0000
  O   O58       1.0  0.78547  0.16712  0.14306  1.0000
  C   C172      1.0  0.85699  0.09809  0.34605  1.0000
  C   C173      1.0  0.87291  0.11418  0.26459  1.0000
  C   C174      1.0  0.90353  0.14404  0.26746  1.0000
  H   H72       1.0  0.91298  0.15643  0.20807  1.0000
  N   N30       1.0  0.85641  0.10146  0.18139  1.0000
  O   O59       1.0  0.87332  0.09484  0.12881  1.0000
  O   O60       1.0  0.84976  0.12133  0.14275  1.0000
  C   C175      1.0  0.99208  0.24769  0.34764  1.0000
  C   C176      1.0  0.97288  0.26383  0.34709  1.0000
  C   C177      1.0  0.93799  0.24679  0.34759  1.0000
  C   C178      1.0  0.92108  0.21219  0.34831  1.0000
  H   H73       1.0  0.98383  0.28879  0.34593  1.0000
  H   H74       1.0  0.89577  0.19953  0.34849  1.0000
  C   C179      1.0  0.52788  0.26559  0.34759  1.0000
  C   C180      1.0  0.59888  0.30111  0.34794  1.0000
  C   C181      1.0  0.58198  0.26650  0.34731  1.0000
  C   C182      1.0  0.54709  0.24945  0.34695  1.0000
  H   H75       1.0  0.62419  0.31377  0.34811  1.0000
  H   H76       1.0  0.53614  0.22449  0.34586  1.0000
  C   C183      1.0  0.76892  0.24768  0.34774  1.0000
  C   C184      1.0  0.75278  0.21234  0.34701  1.0000
  C   C185      1.0  0.76983  0.19451  0.34702  1.0000
  C   C186      1.0  0.80444  0.21221  0.34744  1.0000
  H   H77       1.0  0.72782  0.19834  0.34596  1.0000
  H   H78       1.0  0.81710  0.19955  0.34744  1.0000
  C   C187      1.0  0.75101  0.26557  0.34779  1.0000
  C   C188      1.0  0.71550  0.30107  0.34800  1.0000
  C   C189      1.0  0.75012  0.31875  0.34746  1.0000
  C   C190      1.0  0.76716  0.30091  0.34701  1.0000
  H   H79       1.0  0.70286  0.31373  0.34807  1.0000
  H   H80       1.0  0.79211  0.31491  0.34572  1.0000
  C   C191      1.0  0.76894  0.02459  0.34761  1.0000
  C   C192      1.0  0.80428  0.04378  0.34687  1.0000
  C   C193      1.0  0.82214  0.07866  0.34737  1.0000
  C   C194      1.0  0.80445  0.09559  0.34798  1.0000
  H   H81       1.0  0.81828  0.03282  0.34564  1.0000
  H   H82       1.0  0.81711  0.12089  0.34811  1.0000
  C   C195      1.0  0.75103  0.48879  0.34759  1.0000
  C   C196      1.0  0.71553  0.41780  0.34774  1.0000
  C   C197      1.0  0.69785  0.43472  0.34717  1.0000
  C   C198      1.0  0.71569  0.46960  0.34696  1.0000
  H   H83       1.0  0.70288  0.39249  0.34781  1.0000
  H   H84       1.0  0.70169  0.48056  0.34588  1.0000
  C   C199      1.0  0.66295  0.25106  0.34997  1.0000
  C   C200      1.0  0.64715  0.25147  0.43143  1.0000
  C   C201      1.0  0.61658  0.25079  0.42858  1.0000
  H   H85       1.0  0.60718  0.25384  0.48794  1.0000
  N   N31       1.0  0.66375  0.25542  0.51456  1.0000
  O   O61       1.0  0.64686  0.23200  0.56754  1.0000
  O   O62       1.0  0.67048  0.28203  0.55276  1.0000
  C   C202      1.0  0.76553  0.41527  0.34970  1.0000
  C   C203      1.0  0.76499  0.39893  0.43109  1.0000
  C   C204      1.0  0.76573  0.36907  0.42831  1.0000
  H   H86       1.0  0.76254  0.35661  0.48774  1.0000
  N   N32       1.0  0.76091  0.41149  0.51424  1.0000
  O   O63       1.0  0.78425  0.41800  0.56747  1.0000
  O   O64       1.0  0.73424  0.39157  0.55215  1.0000
  C   C205      1.0  0.60136  0.35363  0.34993  1.0000
  C   C206      1.0  0.61762  0.36952  0.43125  1.0000
  C   C207      1.0  0.64745  0.40015  0.42835  1.0000
  H   H87       1.0  0.65992  0.40950  0.48769  1.0000
  N   N33       1.0  0.60503  0.35294  0.51442  1.0000
  O   O65       1.0  0.59846  0.36979  0.56741  1.0000
  O   O66       1.0  0.62496  0.34626  0.55257  1.0000
  C   C208      1.0  0.85698  0.26223  0.34974  1.0000
  C   C209      1.0  0.87274  0.26187  0.43131  1.0000
  C   C210      1.0  0.90332  0.26255  0.42863  1.0000
  H   H88       1.0  0.91269  0.25952  0.48809  1.0000
  N   N34       1.0  0.85612  0.25794  0.51436  1.0000
  O   O67       1.0  0.87298  0.28138  0.56730  1.0000
  O   O68       1.0  0.84937  0.23135  0.55267  1.0000
  C   C211      1.0  0.75443  0.09810  0.34990  1.0000
  C   C212      1.0  0.75474  0.11433  0.43125  1.0000
  C   C213      1.0  0.75402  0.14420  0.42832  1.0000
  H   H89       1.0  0.75701  0.15664  0.48767  1.0000
  N   N35       1.0  0.75866  0.10170  0.51443  1.0000
  O   O69       1.0  0.73521  0.09514  0.56730  1.0000
  O   O70       1.0  0.78524  0.12159  0.55273  1.0000
  C   C214      1.0  0.91854  0.15965  0.34984  1.0000
  C   C215      1.0  0.90220  0.14391  0.43132  1.0000
  C   C216      1.0  0.87234  0.11330  0.42852  1.0000
  H   H90       1.0  0.85984  0.10403  0.48788  1.0000
  N   N36       1.0  0.91474  0.16055  0.51446  1.0000
  O   O71       1.0  0.92124  0.14372  0.56772  1.0000
  O   O72       1.0  0.89482  0.16730  0.55234  1.0000
  C   C217      1.0  0.93800  0.69450  0.34857  1.0000
  C   C218      1.0  0.97288  0.71234  0.34828  1.0000
  H   H91       1.0  0.98384  0.69834  0.34914  1.0000
  C   C219      1.0  0.54706  0.80093  0.34832  1.0000
  C   C220      1.0  0.58195  0.81879  0.34821  1.0000
  H   H92       1.0  0.53610  0.81492  0.34944  1.0000
  C   C221      1.0  0.82213  0.74681  0.34801  1.0000
  C   C222      1.0  0.80427  0.76384  0.34847  1.0000
  H   H93       1.0  0.81827  0.78880  0.34982  1.0000
  C   C223      1.0  0.71566  0.74942  0.34857  1.0000
  C   C224      1.0  0.69781  0.76646  0.34838  1.0000
  H   H94       1.0  0.70166  0.72446  0.34976  1.0000
  C   C225      1.0  0.76984  0.57867  0.34829  1.0000
  C   C226      1.0  0.75279  0.54378  0.34841  1.0000
  H   H95       1.0  0.72784  0.53283  0.34953  1.0000
  C   C227      1.0  0.76719  0.96960  0.34829  1.0000
  C   C228      1.0  0.75014  0.93472  0.34824  1.0000
  H   H96       1.0  0.79215  0.98055  0.34938  1.0000
  C   C229      1.0  0.60145  0.75111  0.34616  1.0000
  C   C230      1.0  0.61764  0.75148  0.26465  1.0000
  C   C231      1.0  0.64751  0.75074  0.26749  1.0000
  H   H97       1.0  0.65995  0.75379  0.20812  1.0000
  N   N37       1.0  0.60500  0.75540  0.18146  1.0000
  O   O73       1.0  0.59843  0.73194  0.12859  1.0000
  O   O74       1.0  0.62489  0.78198  0.14315  1.0000
  C   C232      1.0  0.76552  0.85359  0.34599  1.0000
  C   C233      1.0  0.76531  0.86955  0.26463  1.0000
  C   C234      1.0  0.76606  0.90016  0.26741  1.0000
  H   H98       1.0  0.76309  0.90957  0.20797  1.0000
  N   N38       1.0  0.76145  0.85302  0.18144  1.0000
  O   O75       1.0  0.78496  0.86991  0.12871  1.0000
  O   O76       1.0  0.73491  0.84634  0.14296  1.0000
  C   C235      1.0  0.66301  0.91526  0.34596  1.0000
  C   C236      1.0  0.64712  0.89895  0.26461  1.0000
  C   C237      1.0  0.61648  0.86910  0.26746  1.0000
  H   H99       1.0  0.60717  0.85664  0.20808  1.0000
  N   N39       1.0  0.66370  0.91151  0.18141  1.0000
  O   O77       1.0  0.64684  0.91806  0.12836  1.0000
  O   O78       1.0  0.67038  0.89158  0.14331  1.0000
  C   C238      1.0  0.91852  0.76217  0.34638  1.0000
  C   C239      1.0  0.90234  0.76178  0.26479  1.0000
  C   C240      1.0  0.87249  0.76256  0.26737  1.0000
  H   H100      1.0  0.86006  0.75941  0.20791  1.0000
  N   N40       1.0  0.91500  0.75782  0.18168  1.0000
  O   O79       1.0  0.92161  0.78126  0.12872  1.0000
  O   O80       1.0  0.89512  0.73123  0.14341  1.0000
  C   C241      1.0  0.75442  0.65965  0.34584  1.0000
  C   C242      1.0  0.75489  0.64385  0.26441  1.0000
  C   C243      1.0  0.75417  0.61326  0.26739  1.0000
  H   H101      1.0  0.75726  0.60388  0.20806  1.0000
  N   N41       1.0  0.75886  0.66041  0.18119  1.0000
  O   O81       1.0  0.73544  0.64351  0.12821  1.0000
  O   O82       1.0  0.78547  0.66712  0.14306  1.0000
  C   C244      1.0  0.85699  0.59809  0.34605  1.0000
  C   C245      1.0  0.87291  0.61418  0.26459  1.0000
  C   C246      1.0  0.90353  0.64404  0.26746  1.0000
  H   H102      1.0  0.91298  0.65643  0.20807  1.0000
  N   N42       1.0  0.85640  0.60146  0.18139  1.0000
  O   O83       1.0  0.87332  0.59484  0.12881  1.0000
  O   O84       1.0  0.84976  0.62133  0.14275  1.0000
  C   C247      1.0  0.99207  0.74769  0.34764  1.0000
  C   C248      1.0  0.97288  0.76384  0.34709  1.0000
  C   C249      1.0  0.93799  0.74679  0.34759  1.0000
  C   C250      1.0  0.92108  0.71219  0.34831  1.0000
  H   H103      1.0  0.98383  0.78879  0.34593  1.0000
  H   H104      1.0  0.89577  0.69953  0.34849  1.0000
  C   C251      1.0  0.52788  0.76559  0.34759  1.0000
  C   C252      1.0  0.59888  0.80111  0.34794  1.0000
  C   C253      1.0  0.58198  0.76650  0.34731  1.0000
  C   C254      1.0  0.54709  0.74945  0.34695  1.0000
  H   H105      1.0  0.62419  0.81377  0.34811  1.0000
  H   H106      1.0  0.53614  0.72449  0.34586  1.0000
  C   C255      1.0  0.76892  0.74768  0.34774  1.0000
  C   C256      1.0  0.75278  0.71235  0.34701  1.0000
  C   C257      1.0  0.76983  0.69451  0.34702  1.0000
  C   C258      1.0  0.80444  0.71220  0.34744  1.0000
  H   H107      1.0  0.72782  0.69834  0.34596  1.0000
  H   H108      1.0  0.81710  0.69955  0.34744  1.0000
  C   C259      1.0  0.75101  0.76557  0.34779  1.0000
  C   C260      1.0  0.71551  0.80107  0.34800  1.0000
  C   C261      1.0  0.75012  0.81875  0.34746  1.0000
  C   C262      1.0  0.76715  0.80091  0.34701  1.0000
  H   H109      1.0  0.70286  0.81373  0.34807  1.0000
  H   H110      1.0  0.79211  0.81491  0.34572  1.0000
  C   C263      1.0  0.76894  0.52459  0.34761  1.0000
  C   C264      1.0  0.80428  0.54378  0.34687  1.0000
  C   C265      1.0  0.82214  0.57866  0.34737  1.0000
  C   C266      1.0  0.80445  0.59559  0.34798  1.0000
  H   H111      1.0  0.81829  0.53282  0.34564  1.0000
  H   H112      1.0  0.81711  0.62089  0.34811  1.0000
  C   C267      1.0  0.75104  0.98879  0.34759  1.0000
  C   C268      1.0  0.71553  0.91780  0.34774  1.0000
  C   C269      1.0  0.69785  0.93471  0.34717  1.0000
  C   C270      1.0  0.71569  0.96960  0.34696  1.0000
  H   H113      1.0  0.70288  0.89249  0.34781  1.0000
  H   H114      1.0  0.70169  0.98056  0.34588  1.0000
  C   C271      1.0  0.66295  0.75106  0.34997  1.0000
  C   C272      1.0  0.64715  0.75147  0.43143  1.0000
  C   C273      1.0  0.61658  0.75079  0.42858  1.0000
  H   H115      1.0  0.60718  0.75384  0.48794  1.0000
  N   N43       1.0  0.66375  0.75542  0.51456  1.0000
  O   O85       1.0  0.64686  0.73200  0.56754  1.0000
  O   O86       1.0  0.67048  0.78203  0.55276  1.0000
  C   C274      1.0  0.76553  0.91527  0.34970  1.0000
  C   C275      1.0  0.76499  0.89893  0.43109  1.0000
  C   C276      1.0  0.76573  0.86907  0.42831  1.0000
  H   H116      1.0  0.76254  0.85661  0.48774  1.0000
  N   N44       1.0  0.76091  0.91148  0.51424  1.0000
  O   O87       1.0  0.78425  0.91800  0.56747  1.0000
  O   O88       1.0  0.73425  0.89157  0.55215  1.0000
  C   C277      1.0  0.60136  0.85363  0.34993  1.0000
  C   C278      1.0  0.61762  0.86952  0.43125  1.0000
  C   C279      1.0  0.64745  0.90016  0.42835  1.0000
  H   H117      1.0  0.65992  0.90950  0.48769  1.0000
  N   N45       1.0  0.60503  0.85293  0.51442  1.0000
  O   O89       1.0  0.59846  0.86979  0.56741  1.0000
  O   O90       1.0  0.62496  0.84627  0.55257  1.0000
  C   C280      1.0  0.85698  0.76223  0.34974  1.0000
  C   C281      1.0  0.87275  0.76186  0.43131  1.0000
  C   C282      1.0  0.90333  0.76255  0.42863  1.0000
  H   H118      1.0  0.91269  0.75952  0.48809  1.0000
  N   N46       1.0  0.85612  0.75794  0.51436  1.0000
  O   O91       1.0  0.87298  0.78138  0.56730  1.0000
  O   O92       1.0  0.84937  0.73135  0.55267  1.0000
  C   C283      1.0  0.75443  0.59810  0.34990  1.0000
  C   C284      1.0  0.75474  0.61433  0.43125  1.0000
  C   C285      1.0  0.75402  0.64420  0.42832  1.0000
  H   H119      1.0  0.75701  0.65664  0.48767  1.0000
  N   N47       1.0  0.75866  0.60170  0.51443  1.0000
  O   O93       1.0  0.73520  0.59514  0.56730  1.0000
  O   O94       1.0  0.78524  0.62159  0.55273  1.0000
  C   C286      1.0  0.91854  0.65965  0.34984  1.0000
  C   C287      1.0  0.90220  0.64392  0.43132  1.0000
  C   C288      1.0  0.87234  0.61330  0.42852  1.0000
  H   H120      1.0  0.85984  0.60403  0.48788  1.0000
  N   N48       1.0  0.91474  0.66055  0.51446  1.0000
  O   O95       1.0  0.92124  0.64372  0.56772  1.0000
  O   O96       1.0  0.89482  0.66730  0.55234  1.0000
