data_image0
_chemical_formula_structural       C2HC3N2HC2HC3N2HC2NC2HNCHC2NC2HNCHC2HC3N2HC2HC3N2HC2NC2HNCHC2NC2HNCHC2HC3N2HC2HC3N2HC2HC3N2HC2HC3N2HC2NC2HNCHC2NC2HNCHC2HC3N2HC2HC3N2HC2NC2HNCHC2NC2HNCHC2HC3N2HC2HC3N2HC2NC2HNCHC2NC2HNCHC2HC3N2HC2HC3N2HC6H3C6H3C6H3C6H3C6H3C6H3C6H3C6H3C6H3C6H3C6H3C6H3C6H3C6H3C6H3C6H3C2NC2HNCHC2NC2HNCHC2HC3N2HC2HC3N2HC2NC2HNCHC2NC2HNCHC2HC3N2HC2HC3N2HC2NC2HNCHC2NC2HNCHC2NC2HNCHC2NC2HNCHC2HC3N2HC2HC3N2HC2NC2HNCHC2NC2HNCHC2HC3N2HC2HC3N2HC2NC2HNCHC2NC2HNCHC2HC3N2HC2HC3N2HC2NC2HNCHC2NC2HNCH
_chemical_formula_sum              "C336 H144 N96"
_cell_length_a       66.2076
_cell_length_b       51.9169
_cell_length_c       14.9257
_cell_angle_alpha    90
_cell_angle_beta     90
_cell_angle_gamma    90

_space_group_name_H-M_alt    "P 1"
_space_group_IT_number       1

loop_
  _space_group_symop_operation_xyz
  'x, y, z'

loop_
  _atom_site_type_symbol
  _atom_site_label
  _atom_site_symmetry_multiplicity
  _atom_site_fract_x
  _atom_site_fract_y
  _atom_site_fract_z
  _atom_site_occupancy
  C   C1        1.0  0.00228  0.97576  0.25966  1.0000
  C   C2        1.0  0.00228  0.94860  0.25819  1.0000
  H   H1        1.0  0.00211  0.93916  0.19796  1.0000
  C   C3        1.0  0.00250  0.07052  0.33921  1.0000
  C   C4        1.0  0.00220  0.05639  0.25823  1.0000
  C   C5        1.0  0.00224  0.02923  0.25968  1.0000
  N   N1        1.0  0.00202  0.01511  0.18303  1.0000
  N   N2        1.0  0.00204  0.98988  0.18302  1.0000
  H   H2        1.0  0.00200  0.06584  0.19801  1.0000
  C   C6        1.0  0.50305  0.47576  0.25971  1.0000
  C   C7        1.0  0.50311  0.44860  0.25825  1.0000
  H   H3        1.0  0.50357  0.43916  0.19805  1.0000
  C   C8        1.0  0.50248  0.57052  0.33921  1.0000
  C   C9        1.0  0.50303  0.55640  0.25827  1.0000
  C   C10       1.0  0.50301  0.52924  0.25972  1.0000
  N   N3        1.0  0.50355  0.51512  0.18311  1.0000
  N   N4        1.0  0.50358  0.48988  0.18311  1.0000
  H   H4        1.0  0.50345  0.56584  0.19807  1.0000
  C   C11       1.0  0.12638  0.23366  0.34656  1.0000
  C   C12       1.0  0.12541  0.21168  0.29041  1.0000
  N   N5        1.0  0.10900  0.19583  0.29172  1.0000
  C   C13       1.0  0.09288  0.19949  0.34689  1.0000
  C   C14       1.0  0.07556  0.18346  0.34670  1.0000
  H   H5        1.0  0.13660  0.20800  0.24502  1.0000
  N   N6        1.0  0.07336  0.16281  0.29140  1.0000
  C   C15       1.0  0.05649  0.14777  0.28988  1.0000
  H   H6        1.0  0.05588  0.13299  0.24476  1.0000
  C   C16       1.0  0.87863  0.77129  0.34607  1.0000
  C   C17       1.0  0.87960  0.79326  0.28988  1.0000
  N   N7        1.0  0.89600  0.80913  0.29126  1.0000
  C   C18       1.0  0.91211  0.80549  0.34648  1.0000
  C   C19       1.0  0.92942  0.82153  0.34632  1.0000
  H   H7        1.0  0.86839  0.79695  0.24457  1.0000
  N   N8        1.0  0.93163  0.84218  0.29102  1.0000
  C   C20       1.0  0.94849  0.85723  0.28956  1.0000
  H   H8        1.0  0.94912  0.87199  0.24432  1.0000
  C   C21       1.0  0.91169  0.22077  0.27012  1.0000
  C   C22       1.0  0.89501  0.23755  0.27055  1.0000
  H   H9        1.0  0.89503  0.25294  0.22763  1.0000
  C   C23       1.0  0.96518  0.15322  0.33025  1.0000
  C   C24       1.0  0.96312  0.17436  0.27095  1.0000
  C   C25       1.0  0.94547  0.18946  0.27040  1.0000
  N   N9        1.0  0.94367  0.21014  0.21531  1.0000
  N   N10       1.0  0.92770  0.22495  0.21519  1.0000
  H   H10       1.0  0.97459  0.17905  0.22795  1.0000
  C   C26       1.0  0.09330  0.78421  0.27008  1.0000
  C   C27       1.0  0.10997  0.76743  0.27047  1.0000
  H   H11       1.0  0.10994  0.75204  0.22756  1.0000
  C   C28       1.0  0.03980  0.85176  0.33038  1.0000
  C   C29       1.0  0.04187  0.83063  0.27102  1.0000
  C   C30       1.0  0.05952  0.81552  0.27044  1.0000
  N   N11       1.0  0.06131  0.79485  0.21531  1.0000
  N   N12       1.0  0.07728  0.78004  0.21515  1.0000
  H   H12       1.0  0.03040  0.82595  0.22799  1.0000
  C   C31       1.0  0.62639  0.73366  0.34669  1.0000
  C   C32       1.0  0.62544  0.71168  0.29054  1.0000
  N   N13       1.0  0.60903  0.69583  0.29180  1.0000
  C   C33       1.0  0.59290  0.69947  0.34691  1.0000
  C   C34       1.0  0.57558  0.68345  0.34664  1.0000
  H   H13       1.0  0.63663  0.70800  0.24517  1.0000
  N   N14       1.0  0.57338  0.66280  0.29131  1.0000
  C   C35       1.0  0.55651  0.64777  0.28970  1.0000
  H   H14       1.0  0.55590  0.63299  0.24456  1.0000
  C   C36       1.0  0.37862  0.27129  0.34657  1.0000
  C   C37       1.0  0.37959  0.29327  0.29042  1.0000
  N   N15       1.0  0.39600  0.30913  0.29179  1.0000
  C   C38       1.0  0.41212  0.30547  0.34695  1.0000
  C   C39       1.0  0.42944  0.32151  0.34679  1.0000
  H   H15       1.0  0.36839  0.29697  0.24512  1.0000
  N   N16       1.0  0.43163  0.34218  0.29156  1.0000
  C   C40       1.0  0.44849  0.35723  0.29010  1.0000
  H   H16       1.0  0.44911  0.37200  0.24493  1.0000
  C   C41       1.0  0.41168  0.72076  0.27000  1.0000
  C   C42       1.0  0.39500  0.73754  0.27033  1.0000
  H   H17       1.0  0.39503  0.75292  0.22740  1.0000
  C   C43       1.0  0.46519  0.65325  0.33055  1.0000
  C   C44       1.0  0.46312  0.67437  0.27114  1.0000
  C   C45       1.0  0.44547  0.68946  0.27049  1.0000
  N   N17       1.0  0.44367  0.71013  0.21533  1.0000
  N   N18       1.0  0.42770  0.72493  0.21511  1.0000
  H   H18       1.0  0.47459  0.67904  0.22813  1.0000
  C   C46       1.0  0.59330  0.28421  0.26968  1.0000
  C   C47       1.0  0.60998  0.26743  0.27007  1.0000
  H   H19       1.0  0.60994  0.25202  0.22725  1.0000
  C   C48       1.0  0.53980  0.35176  0.32993  1.0000
  C   C49       1.0  0.54186  0.33061  0.27065  1.0000
  C   C50       1.0  0.55951  0.31552  0.27005  1.0000
  N   N19       1.0  0.56130  0.29483  0.21501  1.0000
  N   N20       1.0  0.57727  0.28002  0.21484  1.0000
  H   H20       1.0  0.53038  0.32591  0.22772  1.0000
  C   C51       1.0  0.38598  0.09358  0.25219  1.0000
  C   C52       1.0  0.39271  0.06794  0.25052  1.0000
  H   H21       1.0  0.40313  0.06262  0.20328  1.0000
  C   C53       1.0  0.35687  0.18050  0.33007  1.0000
  C   C54       1.0  0.37011  0.17116  0.26320  1.0000
  C   C55       1.0  0.37501  0.14484  0.25921  1.0000
  N   N21       1.0  0.38784  0.13552  0.19615  1.0000
  N   N22       1.0  0.39305  0.11124  0.19286  1.0000
  H   H22       1.0  0.37614  0.18346  0.21669  1.0000
  C   C56       1.0  0.61895  0.91139  0.25246  1.0000
  C   C57       1.0  0.61221  0.93702  0.25092  1.0000
  H   H23       1.0  0.60179  0.94235  0.20374  1.0000
  C   C58       1.0  0.64811  0.82446  0.32984  1.0000
  C   C59       1.0  0.63484  0.83380  0.26310  1.0000
  C   C60       1.0  0.62994  0.86013  0.25922  1.0000
  N   N23       1.0  0.61707  0.86946  0.19629  1.0000
  N   N24       1.0  0.61186  0.89374  0.19312  1.0000
  H   H24       1.0  0.62879  0.82152  0.21662  1.0000
  C   C61       1.0  0.61856  0.05022  0.35935  1.0000
  C   C62       1.0  0.63275  0.05892  0.29523  1.0000
  N   N25       1.0  0.63901  0.08388  0.29520  1.0000
  C   C63       1.0  0.63261  0.10152  0.35632  1.0000
  C   C64       1.0  0.63826  0.12771  0.35302  1.0000
  H   H25       1.0  0.63738  0.04721  0.24418  1.0000
  N   N26       1.0  0.65099  0.13719  0.28968  1.0000
  C   C65       1.0  0.65620  0.16247  0.28499  1.0000
  H   H26       1.0  0.66570  0.16823  0.23486  1.0000
  C   C66       1.0  0.38641  0.95475  0.35956  1.0000
  C   C67       1.0  0.37224  0.94604  0.29534  1.0000
  N   N27       1.0  0.36596  0.92110  0.29533  1.0000
  C   C68       1.0  0.37234  0.90346  0.35648  1.0000
  C   C69       1.0  0.36669  0.87727  0.35312  1.0000
  H   H27       1.0  0.36758  0.95779  0.24442  1.0000
  N   N28       1.0  0.35397  0.86779  0.28971  1.0000
  C   C70       1.0  0.34877  0.84251  0.28496  1.0000
  H   H28       1.0  0.33928  0.83676  0.23478  1.0000
  C   C71       1.0  0.88597  0.59359  0.25228  1.0000
  C   C72       1.0  0.89271  0.56795  0.25053  1.0000
  H   H29       1.0  0.90312  0.56265  0.20325  1.0000
  C   C73       1.0  0.85686  0.68050  0.33042  1.0000
  C   C74       1.0  0.87008  0.67117  0.26347  1.0000
  C   C75       1.0  0.87499  0.64485  0.25943  1.0000
  N   N29       1.0  0.88782  0.63554  0.19631  1.0000
  N   N30       1.0  0.89303  0.61126  0.19296  1.0000
  H   H30       1.0  0.87610  0.68347  0.21694  1.0000
  C   C76       1.0  0.11899  0.41136  0.25282  1.0000
  C   C77       1.0  0.11224  0.43700  0.25125  1.0000
  H   H31       1.0  0.10181  0.44231  0.20405  1.0000
  C   C78       1.0  0.14815  0.32444  0.33034  1.0000
  C   C79       1.0  0.13490  0.33379  0.26353  1.0000
  C   C80       1.0  0.12999  0.36011  0.25963  1.0000
  N   N31       1.0  0.11714  0.36944  0.19665  1.0000
  N   N32       1.0  0.11192  0.39372  0.19347  1.0000
  H   H32       1.0  0.12886  0.32150  0.21702  1.0000
  C   C81       1.0  0.11855  0.55021  0.35890  1.0000
  C   C82       1.0  0.13271  0.55893  0.29467  1.0000
  N   N33       1.0  0.13900  0.58387  0.29471  1.0000
  C   C83       1.0  0.13262  0.60151  0.35586  1.0000
  C   C84       1.0  0.13829  0.62769  0.35259  1.0000
  H   H33       1.0  0.13739  0.54718  0.24379  1.0000
  N   N34       1.0  0.15101  0.63718  0.28922  1.0000
  C   C85       1.0  0.15622  0.66246  0.28454  1.0000
  H   H34       1.0  0.16571  0.66821  0.23435  1.0000
  C   C86       1.0  0.88637  0.45476  0.35965  1.0000
  C   C87       1.0  0.87223  0.44606  0.29531  1.0000
  N   N35       1.0  0.86595  0.42111  0.29522  1.0000
  C   C88       1.0  0.87232  0.40347  0.35639  1.0000
  C   C89       1.0  0.86666  0.37727  0.35294  1.0000
  H   H35       1.0  0.86759  0.45780  0.24436  1.0000
  N   N36       1.0  0.85397  0.36780  0.28943  1.0000
  C   C90       1.0  0.84877  0.34252  0.28460  1.0000
  H   H36       1.0  0.83930  0.33678  0.23433  1.0000
  C   C91       1.0  0.52335  0.00287  0.25728  1.0000
  C   C92       1.0  0.54457  0.00274  0.25646  1.0000
  H   H37       1.0  0.55212  0.00301  0.19658  1.0000
  C   C93       1.0  0.44967  0.00248  0.33815  1.0000
  C   C94       1.0  0.46040  0.00332  0.25649  1.0000
  C   C95       1.0  0.48162  0.00314  0.25730  1.0000
  N   N37       1.0  0.49260  0.00358  0.18043  1.0000
  N   N38       1.0  0.51237  0.00341  0.18043  1.0000
  H   H38       1.0  0.45286  0.00384  0.19661  1.0000
  C   C96       1.0  0.02336  0.50338  0.25730  1.0000
  C   C97       1.0  0.04458  0.50329  0.25648  1.0000
  H   H39       1.0  0.05213  0.50400  0.19665  1.0000
  C   C98       1.0  0.94967  0.50243  0.33808  1.0000
  C   C99       1.0  0.96041  0.50385  0.25653  1.0000
  C   C100      1.0  0.98163  0.50364  0.25732  1.0000
  N   N39       1.0  0.99261  0.50462  0.18053  1.0000
  N   N40       1.0  0.01238  0.50446  0.18051  1.0000
  H   H40       1.0  0.95287  0.50480  0.19671  1.0000
  C   C101      1.0  0.30561  0.24819  0.33793  1.0000
  C   C102      1.0  0.29462  0.24899  0.25678  1.0000
  N   N41       1.0  0.27414  0.25072  0.25770  1.0000
  C   C103      1.0  0.26315  0.25180  0.33458  1.0000
  C   C104      1.0  0.24185  0.25308  0.33462  1.0000
  H   H41       1.0  0.30181  0.24729  0.19645  1.0000
  N   N42       1.0  0.23084  0.25401  0.25776  1.0000
  C   C105      1.0  0.21036  0.25577  0.25691  1.0000
  H   H42       1.0  0.20314  0.25733  0.19658  1.0000
  C   C106      1.0  0.69941  0.75682  0.33711  1.0000
  C   C107      1.0  0.71052  0.75715  0.25623  1.0000
  N   N43       1.0  0.73100  0.75536  0.25746  1.0000
  C   C108      1.0  0.74186  0.75325  0.33441  1.0000
  C   C109      1.0  0.76317  0.75196  0.33484  1.0000
  H   H43       1.0  0.70342  0.75960  0.19600  1.0000
  N   N44       1.0  0.77430  0.75206  0.25825  1.0000
  C   C110      1.0  0.79478  0.75031  0.25770  1.0000
  H   H44       1.0  0.80209  0.74954  0.19741  1.0000
  C   C111      1.0  0.73149  0.25184  0.25864  1.0000
  C   C112      1.0  0.71027  0.24990  0.25764  1.0000
  H   H45       1.0  0.70284  0.24888  0.19756  1.0000
  C   C113      1.0  0.80559  0.25676  0.33763  1.0000
  C   C114      1.0  0.79453  0.25664  0.25663  1.0000
  C   C115      1.0  0.77331  0.25461  0.25807  1.0000
  N   N45       1.0  0.76220  0.25468  0.18156  1.0000
  N   N46       1.0  0.74244  0.25327  0.18181  1.0000
  H   H46       1.0  0.80182  0.25885  0.19660  1.0000
  C   C116      1.0  0.27344  0.75354  0.25855  1.0000
  C   C117      1.0  0.29467  0.75550  0.25746  1.0000
  H   H47       1.0  0.30206  0.75685  0.19738  1.0000
  C   C118      1.0  0.19938  0.74822  0.33795  1.0000
  C   C119      1.0  0.21040  0.74877  0.25687  1.0000
  C   C120      1.0  0.23162  0.75077  0.25823  1.0000
  N   N47       1.0  0.24270  0.75110  0.18161  1.0000
  N   N48       1.0  0.26245  0.75252  0.18175  1.0000
  H   H48       1.0  0.20308  0.74688  0.19680  1.0000
  C   C121      1.0  0.98373  0.13897  0.33499  1.0000
  C   C122      1.0  0.00248  0.15209  0.33808  1.0000
  C   C123      1.0  0.02125  0.13899  0.34155  1.0000
  C   C124      1.0  0.02092  0.11171  0.34092  1.0000
  C   C125      1.0  0.00250  0.09789  0.33893  1.0000
  C   C126      1.0  0.98407  0.11170  0.33647  1.0000
  H   H49       1.0  0.03425  0.10175  0.34401  1.0000
  H   H50       1.0  0.97074  0.10171  0.33357  1.0000
  H   H51       1.0  0.00248  0.17182  0.33783  1.0000
  C   C127      1.0  0.02126  0.86601  0.33509  1.0000
  C   C128      1.0  0.00250  0.85290  0.33797  1.0000
  C   C129      1.0  0.98374  0.86601  0.34123  1.0000
  C   C130      1.0  0.98407  0.89328  0.34046  1.0000
  C   C131      1.0  0.00250  0.90709  0.33887  1.0000
  C   C132      1.0  0.02092  0.89328  0.33672  1.0000
  H   H52       1.0  0.97074  0.90326  0.34348  1.0000
  H   H53       1.0  0.03425  0.90327  0.33398  1.0000
  H   H54       1.0  0.00249  0.83317  0.33772  1.0000
  C   C133      1.0  0.48372  0.63899  0.33527  1.0000
  C   C134      1.0  0.50249  0.65210  0.33808  1.0000
  C   C135      1.0  0.52125  0.63899  0.34128  1.0000
  C   C136      1.0  0.52091  0.61171  0.34041  1.0000
  C   C137      1.0  0.50248  0.59790  0.33893  1.0000
  C   C138      1.0  0.48406  0.61172  0.33693  1.0000
  H   H55       1.0  0.53424  0.60174  0.34338  1.0000
  H   H56       1.0  0.47073  0.60173  0.33424  1.0000
  H   H57       1.0  0.50249  0.67182  0.33785  1.0000
  C   C139      1.0  0.52126  0.36601  0.33473  1.0000
  C   C140      1.0  0.50250  0.35289  0.33797  1.0000
  C   C141      1.0  0.48374  0.36599  0.34161  1.0000
  C   C142      1.0  0.48407  0.39326  0.34108  1.0000
  C   C143      1.0  0.50249  0.40709  0.33887  1.0000
  C   C144      1.0  0.52091  0.39329  0.33613  1.0000
  H   H58       1.0  0.47074  0.40323  0.34433  1.0000
  H   H59       1.0  0.53424  0.40327  0.33316  1.0000
  H   H60       1.0  0.50251  0.33316  0.33773  1.0000
  C   C145      1.0  0.42843  0.00249  0.33857  1.0000
  C   C146      1.0  0.41774  0.97934  0.34962  1.0000
  C   C147      1.0  0.39637  0.97893  0.35029  1.0000
  C   C148      1.0  0.38584  0.00247  0.33830  1.0000
  C   C149      1.0  0.39637  0.02603  0.32641  1.0000
  C   C150      1.0  0.41773  0.02564  0.32732  1.0000
  H   H61       1.0  0.37038  0.00247  0.33819  1.0000
  H   H62       1.0  0.42572  0.04248  0.32137  1.0000
  H   H63       1.0  0.42573  0.96249  0.35540  1.0000
  C   C151      1.0  0.57652  0.00248  0.33862  1.0000
  C   C152      1.0  0.58722  0.02565  0.34916  1.0000
  C   C153      1.0  0.60859  0.02604  0.35004  1.0000
  C   C154      1.0  0.61911  0.00248  0.33838  1.0000
  C   C155      1.0  0.60858  0.97892  0.32680  1.0000
  C   C156      1.0  0.58722  0.97931  0.32787  1.0000
  H   H64       1.0  0.63458  0.00248  0.33830  1.0000
  H   H65       1.0  0.57923  0.96246  0.32216  1.0000
  H   H66       1.0  0.57923  0.04250  0.35474  1.0000
  C   C157      1.0  0.92843  0.50246  0.33850  1.0000
  C   C158      1.0  0.91772  0.47932  0.34974  1.0000
  C   C159      1.0  0.89635  0.47893  0.35034  1.0000
  C   C160      1.0  0.88584  0.50248  0.33831  1.0000
  C   C161      1.0  0.89637  0.52602  0.32632  1.0000
  C   C162      1.0  0.91774  0.52560  0.32708  1.0000
  H   H67       1.0  0.87037  0.50249  0.33825  1.0000
  H   H68       1.0  0.92573  0.54244  0.32107  1.0000
  H   H69       1.0  0.92570  0.46247  0.35561  1.0000
  C   C163      1.0  0.07653  0.50244  0.33860  1.0000
  C   C164      1.0  0.08721  0.52564  0.34872  1.0000
  C   C165      1.0  0.10858  0.52603  0.34967  1.0000
  C   C166      1.0  0.11911  0.50247  0.33834  1.0000
  C   C167      1.0  0.10859  0.47889  0.32707  1.0000
  C   C168      1.0  0.08722  0.47927  0.32827  1.0000
  H   H70       1.0  0.13458  0.50248  0.33825  1.0000
  H   H71       1.0  0.07924  0.46241  0.32271  1.0000
  H   H72       1.0  0.07923  0.54249  0.35412  1.0000
  C   C169      1.0  0.15313  0.29781  0.33497  1.0000
  C   C170      1.0  0.13788  0.27875  0.33698  1.0000
  C   C171      1.0  0.14246  0.25210  0.34108  1.0000
  C   C172      1.0  0.16310  0.24474  0.34031  1.0000
  C   C173      1.0  0.17866  0.26344  0.33809  1.0000
  C   C174      1.0  0.17349  0.28981  0.33629  1.0000
  H   H73       1.0  0.16687  0.22563  0.34347  1.0000
  H   H74       1.0  0.18473  0.30339  0.33367  1.0000
  H   H75       1.0  0.12308  0.28451  0.33589  1.0000
  C   C175      1.0  0.85187  0.70714  0.33513  1.0000
  C   C176      1.0  0.86712  0.72620  0.33674  1.0000
  C   C177      1.0  0.86255  0.75286  0.34071  1.0000
  C   C178      1.0  0.84191  0.76022  0.34005  1.0000
  C   C179      1.0  0.82635  0.74152  0.33856  1.0000
  C   C180      1.0  0.83152  0.71514  0.33694  1.0000
  H   H76       1.0  0.83813  0.77932  0.34324  1.0000
  H   H77       1.0  0.82028  0.70156  0.33463  1.0000
  H   H78       1.0  0.88192  0.72044  0.33547  1.0000
  C   C181      1.0  0.85186  0.29782  0.34127  1.0000
  C   C182      1.0  0.86711  0.27876  0.33951  1.0000
  C   C183      1.0  0.86253  0.25211  0.33548  1.0000
  C   C184      1.0  0.84189  0.24474  0.33621  1.0000
  C   C185      1.0  0.82634  0.26345  0.33795  1.0000
  C   C186      1.0  0.83151  0.28982  0.33964  1.0000
  H   H79       1.0  0.83812  0.22564  0.33299  1.0000
  H   H80       1.0  0.82027  0.30340  0.34207  1.0000
  H   H81       1.0  0.88191  0.28452  0.34068  1.0000
  C   C187      1.0  0.15311  0.70715  0.34132  1.0000
  C   C188      1.0  0.13786  0.72620  0.33946  1.0000
  C   C189      1.0  0.14244  0.75286  0.33543  1.0000
  C   C190      1.0  0.16308  0.76022  0.33617  1.0000
  C   C191      1.0  0.17863  0.74152  0.33816  1.0000
  C   C192      1.0  0.17347  0.71515  0.33990  1.0000
  H   H82       1.0  0.16685  0.77932  0.33300  1.0000
  H   H83       1.0  0.18471  0.70157  0.34236  1.0000
  H   H84       1.0  0.12306  0.72044  0.34055  1.0000
  C   C193      1.0  0.65310  0.79783  0.33442  1.0000
  C   C194      1.0  0.63786  0.77876  0.33683  1.0000
  C   C195      1.0  0.64246  0.75211  0.34114  1.0000
  C   C196      1.0  0.66311  0.74478  0.34027  1.0000
  C   C197      1.0  0.67865  0.76349  0.33737  1.0000
  C   C198      1.0  0.67346  0.78985  0.33529  1.0000
  H   H85       1.0  0.66690  0.72568  0.34359  1.0000
  H   H86       1.0  0.68469  0.80344  0.33243  1.0000
  H   H87       1.0  0.62306  0.78451  0.33591  1.0000
  C   C199      1.0  0.35188  0.20714  0.33475  1.0000
  C   C200      1.0  0.36713  0.22619  0.33684  1.0000
  C   C201      1.0  0.36255  0.25285  0.34104  1.0000
  C   C202      1.0  0.34191  0.26020  0.34029  1.0000
  C   C203      1.0  0.32636  0.24150  0.33793  1.0000
  C   C204      1.0  0.33153  0.21513  0.33601  1.0000
  H   H88       1.0  0.33813  0.27931  0.34352  1.0000
  H   H89       1.0  0.32029  0.20155  0.33336  1.0000
  H   H90       1.0  0.38193  0.22044  0.33577  1.0000
  C   C205      1.0  0.35187  0.79782  0.34165  1.0000
  C   C206      1.0  0.36712  0.77876  0.33946  1.0000
  C   C207      1.0  0.36252  0.75211  0.33527  1.0000
  C   C208      1.0  0.34188  0.74477  0.33610  1.0000
  C   C209      1.0  0.32634  0.76347  0.33860  1.0000
  C   C210      1.0  0.33152  0.78984  0.34054  1.0000
  H   H91       1.0  0.33810  0.72566  0.33290  1.0000
  H   H92       1.0  0.32028  0.80343  0.34326  1.0000
  H   H93       1.0  0.38192  0.78451  0.34045  1.0000
  C   C211      1.0  0.65309  0.20715  0.34174  1.0000
  C   C212      1.0  0.63785  0.22622  0.33938  1.0000
  C   C213      1.0  0.64245  0.25287  0.33511  1.0000
  C   C214      1.0  0.66309  0.26020  0.33596  1.0000
  C   C215      1.0  0.67864  0.24149  0.33875  1.0000
  C   C216      1.0  0.67345  0.21513  0.34080  1.0000
  H   H94       1.0  0.66688  0.27930  0.33268  1.0000
  H   H95       1.0  0.68468  0.20154  0.34358  1.0000
  H   H96       1.0  0.62305  0.22047  0.34032  1.0000
  C   C217      1.0  0.00250  0.93447  0.33916  1.0000
  C   C218      1.0  0.00272  0.94847  0.42041  1.0000
  N   N49       1.0  0.00273  0.97468  0.41975  1.0000
  C   C219      1.0  0.00252  0.98887  0.34310  1.0000
  C   C220      1.0  0.00253  0.01612  0.34311  1.0000
  H   H97       1.0  0.00288  0.93912  0.48070  1.0000
  N   N50       1.0  0.00280  0.03031  0.41976  1.0000
  C   C221      1.0  0.00282  0.05652  0.42044  1.0000
  H   H98       1.0  0.00303  0.06586  0.48073  1.0000
  C   C222      1.0  0.50247  0.43447  0.33917  1.0000
  C   C223      1.0  0.50180  0.44846  0.42037  1.0000
  N   N51       1.0  0.50182  0.47468  0.41971  1.0000
  C   C224      1.0  0.50242  0.48887  0.34311  1.0000
  C   C225      1.0  0.50242  0.51612  0.34312  1.0000
  H   H99       1.0  0.50134  0.43912  0.48063  1.0000
  N   N52       1.0  0.50189  0.53031  0.41974  1.0000
  C   C226      1.0  0.50190  0.55652  0.42042  1.0000
  H   H100      1.0  0.50149  0.56587  0.48069  1.0000
  C   C227      1.0  0.09328  0.22080  0.40627  1.0000
  C   C228      1.0  0.10996  0.23757  0.40592  1.0000
  H   H101      1.0  0.10992  0.25298  0.44874  1.0000
  C   C229      1.0  0.03978  0.15325  0.34612  1.0000
  C   C230      1.0  0.04183  0.17444  0.40525  1.0000
  C   C231      1.0  0.05948  0.18953  0.40584  1.0000
  N   N53       1.0  0.06126  0.21022  0.46084  1.0000
  N   N54       1.0  0.07725  0.22502  0.46104  1.0000
  H   H102      1.0  0.03034  0.17915  0.44818  1.0000
  C   C232      1.0  0.91172  0.78418  0.40587  1.0000
  C   C233      1.0  0.89504  0.76740  0.40549  1.0000
  H   H103      1.0  0.89508  0.75200  0.44835  1.0000
  C   C234      1.0  0.96520  0.85174  0.34577  1.0000
  C   C235      1.0  0.96315  0.83057  0.40497  1.0000
  C   C236      1.0  0.94550  0.81548  0.40553  1.0000
  N   N55       1.0  0.94371  0.79478  0.46054  1.0000
  N   N56       1.0  0.92774  0.77998  0.46070  1.0000
  H   H104      1.0  0.97463  0.82587  0.44792  1.0000
  C   C237      1.0  0.87861  0.23367  0.33003  1.0000
  C   C238      1.0  0.87960  0.21173  0.38634  1.0000
  N   N57       1.0  0.89600  0.19585  0.38491  1.0000
  C   C239      1.0  0.91210  0.19947  0.32959  1.0000
  C   C240      1.0  0.92941  0.18343  0.32970  1.0000
  H   H105      1.0  0.86841  0.20804  0.43171  1.0000
  N   N58       1.0  0.93162  0.16281  0.38512  1.0000
  C   C241      1.0  0.94849  0.14777  0.38661  1.0000
  H   H106      1.0  0.94912  0.13304  0.43193  1.0000
  C   C242      1.0  0.12636  0.77129  0.33000  1.0000
  C   C243      1.0  0.12538  0.79323  0.38634  1.0000
  N   N59       1.0  0.10898  0.80910  0.38493  1.0000
  C   C244      1.0  0.09288  0.80550  0.32960  1.0000
  C   C245      1.0  0.07557  0.82154  0.32976  1.0000
  H   H107      1.0  0.13657  0.79690  0.43172  1.0000
  N   N60       1.0  0.07336  0.84215  0.38523  1.0000
  C   C246      1.0  0.05650  0.85719  0.38676  1.0000
  H   H108      1.0  0.05586  0.87191  0.43211  1.0000
  C   C247      1.0  0.59329  0.72078  0.40631  1.0000
  C   C248      1.0  0.60997  0.73756  0.40601  1.0000
  H   H109      1.0  0.60992  0.75297  0.44881  1.0000
  C   C249      1.0  0.53979  0.65325  0.34588  1.0000
  C   C250      1.0  0.54183  0.67443  0.40507  1.0000
  C   C251      1.0  0.55949  0.68951  0.40573  1.0000
  N   N61       1.0  0.56126  0.71020  0.46076  1.0000
  N   N62       1.0  0.57724  0.72500  0.46102  1.0000
  H   H110      1.0  0.53035  0.67913  0.44799  1.0000
  C   C252      1.0  0.41173  0.28414  0.40626  1.0000
  C   C253      1.0  0.39505  0.26737  0.40588  1.0000
  H   H111      1.0  0.39509  0.25195  0.44866  1.0000
  C   C254      1.0  0.46521  0.35172  0.34623  1.0000
  C   C255      1.0  0.46317  0.33052  0.40532  1.0000
  C   C256      1.0  0.44552  0.31543  0.40590  1.0000
  N   N63       1.0  0.44375  0.29472  0.46083  1.0000
  N   N64       1.0  0.42777  0.27992  0.46100  1.0000
  H   H112      1.0  0.47466  0.32581  0.44818  1.0000
  C   C257      1.0  0.37859  0.73366  0.32977  1.0000
  C   C258      1.0  0.37958  0.71174  0.38617  1.0000
  N   N65       1.0  0.39598  0.69587  0.38483  1.0000
  C   C259      1.0  0.41209  0.69948  0.32953  1.0000
  C   C260      1.0  0.42940  0.68345  0.32976  1.0000
  H   H113      1.0  0.36839  0.70806  0.43153  1.0000
  N   N66       1.0  0.43161  0.66284  0.38525  1.0000
  C   C261      1.0  0.44848  0.64780  0.38685  1.0000
  H   H114      1.0  0.44910  0.63308  0.43221  1.0000
  C   C262      1.0  0.62638  0.27132  0.32951  1.0000
  C   C263      1.0  0.62540  0.29327  0.38578  1.0000
  N   N67       1.0  0.60900  0.30914  0.38437  1.0000
  C   C264      1.0  0.59290  0.30552  0.32910  1.0000
  C   C265      1.0  0.57558  0.32155  0.32927  1.0000
  H   H115      1.0  0.63660  0.29696  0.43114  1.0000
  N   N68       1.0  0.57338  0.34219  0.38465  1.0000
  C   C266      1.0  0.55651  0.35723  0.38619  1.0000
  H   H116      1.0  0.55589  0.37197  0.43148  1.0000
  C   C267      1.0  0.38639  0.05019  0.31692  1.0000
  C   C268      1.0  0.37220  0.05890  0.38105  1.0000
  N   N69       1.0  0.36595  0.08386  0.38111  1.0000
  C   C269      1.0  0.37235  0.10150  0.31999  1.0000
  C   C270      1.0  0.36669  0.12769  0.32332  1.0000
  H   H117      1.0  0.36758  0.04719  0.43213  1.0000
  N   N70       1.0  0.35397  0.13717  0.38672  1.0000
  C   C271      1.0  0.34878  0.16245  0.39147  1.0000
  H   H118      1.0  0.33928  0.16820  0.44161  1.0000
  C   C272      1.0  0.61855  0.95475  0.31735  1.0000
  C   C273      1.0  0.63275  0.94602  0.38139  1.0000
  N   N71       1.0  0.63902  0.92108  0.38128  1.0000
  C   C274      1.0  0.63261  0.90346  0.32013  1.0000
  C   C275      1.0  0.63827  0.87727  0.32333  1.0000
  H   H119      1.0  0.63742  0.95776  0.43234  1.0000
  N   N72       1.0  0.65102  0.86778  0.38659  1.0000
  C   C276      1.0  0.65623  0.84250  0.39119  1.0000
  H   H120      1.0  0.66573  0.83673  0.44130  1.0000
  C   C277      1.0  0.61896  0.09360  0.42407  1.0000
  C   C278      1.0  0.61223  0.06797  0.42570  1.0000
  H   H121      1.0  0.60182  0.06265  0.47300  1.0000
  C   C279      1.0  0.64809  0.18052  0.34636  1.0000
  C   C280      1.0  0.63484  0.17118  0.41317  1.0000
  C   C281      1.0  0.62994  0.14486  0.41712  1.0000
  N   N73       1.0  0.61710  0.13553  0.48015  1.0000
  N   N74       1.0  0.61189  0.11125  0.48340  1.0000
  H   H122      1.0  0.62881  0.18348  0.45968  1.0000
  C   C282      1.0  0.38597  0.91137  0.42430  1.0000
  C   C283      1.0  0.39270  0.93701  0.42605  1.0000
  H   H123      1.0  0.40312  0.94231  0.47328  1.0000
  C   C284      1.0  0.35687  0.82445  0.34632  1.0000
  C   C285      1.0  0.37011  0.83379  0.41319  1.0000
  C   C286      1.0  0.37500  0.86011  0.41721  1.0000
  N   N75       1.0  0.38784  0.86943  0.48028  1.0000
  N   N76       1.0  0.39304  0.89371  0.48360  1.0000
  H   H124      1.0  0.37613  0.82149  0.45969  1.0000
  C   C287      1.0  0.88641  0.55020  0.31692  1.0000
  C   C288      1.0  0.87222  0.55889  0.38108  1.0000
  N   N77       1.0  0.86596  0.58384  0.38122  1.0000
  C   C289      1.0  0.87235  0.60149  0.32013  1.0000
  C   C290      1.0  0.86669  0.62768  0.32353  1.0000
  H   H125      1.0  0.86760  0.54717  0.43214  1.0000
  N   N78       1.0  0.85398  0.63715  0.38699  1.0000
  C   C291      1.0  0.84878  0.66243  0.39181  1.0000
  H   H126      1.0  0.83930  0.66817  0.44202  1.0000
  C   C292      1.0  0.11856  0.45472  0.31771  1.0000
  C   C293      1.0  0.13276  0.44602  0.38177  1.0000
  N   N79       1.0  0.13904  0.42107  0.38168  1.0000
  C   C294      1.0  0.13264  0.40344  0.32053  1.0000
  C   C295      1.0  0.13831  0.37726  0.32376  1.0000
  H   H127      1.0  0.13742  0.45776  0.43271  1.0000
  N   N80       1.0  0.15104  0.36777  0.38708  1.0000
  C   C296      1.0  0.15625  0.34249  0.39172  1.0000
  H   H128      1.0  0.16575  0.33673  0.44188  1.0000
  C   C297      1.0  0.11898  0.59360  0.42363  1.0000
  C   C298      1.0  0.11223  0.56797  0.42526  1.0000
  H   H129      1.0  0.10183  0.56265  0.47259  1.0000
  C   C299      1.0  0.14813  0.68051  0.34595  1.0000
  C   C300      1.0  0.13489  0.67116  0.41281  1.0000
  C   C301      1.0  0.12998  0.64484  0.41674  1.0000
  N   N81       1.0  0.11714  0.63552  0.47978  1.0000
  N   N82       1.0  0.11192  0.61125  0.48301  1.0000
  H   H130      1.0  0.12887  0.68345  0.45936  1.0000
  C   C302      1.0  0.88592  0.41137  0.42430  1.0000
  C   C303      1.0  0.89265  0.43701  0.42612  1.0000
  H   H131      1.0  0.90306  0.44230  0.47341  1.0000
  C   C304      1.0  0.85685  0.32445  0.34599  1.0000
  C   C305      1.0  0.87006  0.33379  0.41297  1.0000
  C   C306      1.0  0.87496  0.36011  0.41706  1.0000
  N   N83       1.0  0.88777  0.36942  0.48023  1.0000
  N   N84       1.0  0.89297  0.39370  0.48362  1.0000
  H   H132      1.0  0.87607  0.32149  0.45951  1.0000
  C   C307      1.0  0.55529  0.00249  0.33819  1.0000
  C   C308      1.0  0.54438  0.00228  0.41942  1.0000
  N   N85       1.0  0.52391  0.00218  0.41804  1.0000
  C   C309      1.0  0.51310  0.00246  0.34068  1.0000
  C   C310      1.0  0.49187  0.00243  0.34067  1.0000
  H   H133      1.0  0.55165  0.00205  0.47988  1.0000
  N   N86       1.0  0.48106  0.00168  0.41798  1.0000
  C   C311      1.0  0.46059  0.00157  0.41933  1.0000
  H   H134      1.0  0.45332  0.00100  0.47976  1.0000
  C   C312      1.0  0.05529  0.50244  0.33816  1.0000
  C   C313      1.0  0.04439  0.50162  0.41935  1.0000
  N   N87       1.0  0.02391  0.50153  0.41796  1.0000
  C   C314      1.0  0.01311  0.50237  0.34063  1.0000
  C   C315      1.0  0.99187  0.50234  0.34061  1.0000
  H   H135      1.0  0.05165  0.50096  0.47976  1.0000
  N   N88       1.0  0.98106  0.50104  0.41783  1.0000
  C   C316      1.0  0.96059  0.50091  0.41916  1.0000
  H   H136      1.0  0.95332  0.49993  0.47952  1.0000
  C   C317      1.0  0.27342  0.25114  0.41796  1.0000
  C   C318      1.0  0.29464  0.24918  0.41913  1.0000
  H   H137      1.0  0.30201  0.24763  0.47923  1.0000
  C   C319      1.0  0.19940  0.25675  0.33813  1.0000
  C   C320      1.0  0.21038  0.25587  0.41930  1.0000
  C   C321      1.0  0.23160  0.25390  0.41804  1.0000
  N   N89       1.0  0.24264  0.25330  0.49473  1.0000
  N   N90       1.0  0.26240  0.25189  0.49469  1.0000
  H   H138      1.0  0.20303  0.25758  0.47940  1.0000
  C   C322      1.0  0.73147  0.75279  0.41750  1.0000
  C   C323      1.0  0.71024  0.75470  0.41838  1.0000
  H   H139      1.0  0.70278  0.75548  0.47843  1.0000
  C   C324      1.0  0.80560  0.74821  0.33900  1.0000
  C   C325      1.0  0.79450  0.74800  0.41990  1.0000
  C   C326      1.0  0.77329  0.75003  0.41834  1.0000
  N   N91       1.0  0.76213  0.74963  0.49473  1.0000
  N   N92       1.0  0.74238  0.75104  0.49435  1.0000
  H   H140      1.0  0.80176  0.74549  0.47987  1.0000
  C   C327      1.0  0.69939  0.24816  0.33889  1.0000
  C   C328      1.0  0.71046  0.24822  0.41991  1.0000
  N   N93       1.0  0.73094  0.24998  0.41879  1.0000
  C   C329      1.0  0.74185  0.25174  0.34185  1.0000
  C   C330      1.0  0.76315  0.25304  0.34157  1.0000
  H   H141      1.0  0.70332  0.24599  0.48017  1.0000
  N   N94       1.0  0.77424  0.25328  0.41827  1.0000
  C   C331      1.0  0.79472  0.25505  0.41892  1.0000
  H   H142      1.0  0.80200  0.25605  0.47924  1.0000
  C   C332      1.0  0.30559  0.75680  0.33873  1.0000
  C   C333      1.0  0.29456  0.75629  0.41982  1.0000
  N   N95       1.0  0.27409  0.75452  0.41880  1.0000
  C   C334      1.0  0.26314  0.75317  0.34186  1.0000
  C   C335      1.0  0.24183  0.75187  0.34169  1.0000
  H   H143      1.0  0.30174  0.75817  0.48013  1.0000
  N   N96       1.0  0.23078  0.75121  0.41847  1.0000
  C   C336      1.0  0.21030  0.74947  0.41922  1.0000
  H   H144      1.0  0.20306  0.74810  0.47954  1.0000
