data_image0
_chemical_formula_structural       C3HC2HO2C3HC2HO2HC2HC2HCNHC3NOC3N2OHC2HC2HCNHC3NOC3N2OCH5NCNH2CNO2CO2CH5NCNH2CNO2CO2C3H2C3HC2HC3HC3H2C2H2C2H2C2H2C2H2C3NH2C3NC3H4C3NC2H2C4N2O4C4N2O4C4N2O4C4N2O4C3H2C3HC2HC3HC3H2C2H2C2H2C2H2C2H2C3NH2C3NC3H4C3NC2H2C4N2O4C4N2O4C4N2O4C4N2O4C3HC3H3C3HC3H3C3HC3H3C2H2C2H2C2H2C2H2C2H2C2H2C3NC3NH4C3NC3NH4C3NC3NH4C4N2O4C4N2O4C4N2O4C4N2O4C4N2O4C4N2O4C3HC3H3C3HC3H3C3HC3H3C2H2C2H2C2H2C2H2C2H2C2H2C3NC3NH4C3NC3NH4C3NC3NH4C4N2O4C4N2O4C4N2O4C4N2O4C4N2O4C4N2O4
_chemical_formula_sum              "C288 H144 O96 N72"
_cell_length_a       46.8447
_cell_length_b       46.8447
_cell_length_c       14.877
_cell_angle_alpha    90
_cell_angle_beta     90
_cell_angle_gamma    120

_space_group_name_H-M_alt    "P 1"
_space_group_IT_number       1

loop_
  _space_group_symop_operation_xyz
  'x, y, z'

loop_
  _atom_site_type_symbol
  _atom_site_label
  _atom_site_symmetry_multiplicity
  _atom_site_fract_x
  _atom_site_fract_y
  _atom_site_fract_z
  _atom_site_occupancy
  C   C1        1.0  0.02405  0.26294  0.34854  1.0000
  C   C2        1.0  0.07814  0.31631  0.34569  1.0000
  C   C3        1.0  0.04329  0.29823  0.34360  1.0000
  H   H1        1.0  0.03227  0.31207  0.33621  1.0000
  C   C4        1.0  0.04292  0.24651  0.35408  1.0000
  C   C5        1.0  0.07771  0.26304  0.35887  1.0000
  H   H2        1.0  0.03164  0.22152  0.35676  1.0000
  O   O1        1.0  0.06687  0.21445  0.52213  1.0000
  O   O2        1.0  0.06482  0.35042  0.51297  1.0000
  C   C6        1.0  0.02405  0.76294  0.34854  1.0000
  C   C7        1.0  0.07814  0.81631  0.34569  1.0000
  C   C8        1.0  0.04329  0.79823  0.34360  1.0000
  H   H3        1.0  0.03227  0.81207  0.33621  1.0000
  C   C9        1.0  0.04292  0.74651  0.35408  1.0000
  C   C10       1.0  0.07771  0.76304  0.35887  1.0000
  H   H4        1.0  0.03164  0.72152  0.35676  1.0000
  O   O3        1.0  0.06687  0.71445  0.52213  1.0000
  O   O4        1.0  0.06482  0.85042  0.51297  1.0000
  H   H5        1.0  0.13888  0.32666  0.31131  1.0000
  C   C11       1.0  0.14258  0.24880  0.26731  1.0000
  C   C12       1.0  0.11249  0.24879  0.27118  1.0000
  H   H6        1.0  0.10483  0.25513  0.21389  1.0000
  C   C13       1.0  0.11407  0.36699  0.26550  1.0000
  C   C14       1.0  0.14413  0.39711  0.26706  1.0000
  H   H7        1.0  0.10741  0.35400  0.20642  1.0000
  C   C15       1.0  0.09468  0.29805  0.35576  1.0000
  N   N1        1.0  0.12762  0.31537  0.36601  1.0000
  H   H8        1.0  0.13806  0.30562  0.39991  1.0000
  C   C16       1.0  0.09601  0.24609  0.35338  1.0000
  C   C17       1.0  0.11024  0.24088  0.43237  1.0000
  C   C18       1.0  0.14116  0.24170  0.42884  1.0000
  N   N2        1.0  0.09608  0.23788  0.51876  1.0000
  O   O5        1.0  0.09717  0.26387  0.54531  1.0000
  C   C19       1.0  0.09663  0.35165  0.34523  1.0000
  C   C20       1.0  0.13974  0.40053  0.42852  1.0000
  C   C21       1.0  0.10952  0.36966  0.42713  1.0000
  N   N3        1.0  0.15170  0.41500  0.51418  1.0000
  N   N4        1.0  0.09428  0.35691  0.51155  1.0000
  O   O6        1.0  0.09583  0.33210  0.53633  1.0000
  H   H9        1.0  0.13887  0.82666  0.31131  1.0000
  C   C22       1.0  0.14258  0.74880  0.26731  1.0000
  C   C23       1.0  0.11249  0.74879  0.27118  1.0000
  H   H10       1.0  0.10483  0.75513  0.21389  1.0000
  C   C24       1.0  0.11407  0.86698  0.26550  1.0000
  C   C25       1.0  0.14412  0.89711  0.26706  1.0000
  H   H11       1.0  0.10741  0.85400  0.20642  1.0000
  C   C26       1.0  0.09467  0.79805  0.35576  1.0000
  N   N5        1.0  0.12762  0.81537  0.36601  1.0000
  H   H12       1.0  0.13805  0.80562  0.39991  1.0000
  C   C27       1.0  0.09601  0.74609  0.35338  1.0000
  C   C28       1.0  0.11024  0.74088  0.43237  1.0000
  C   C29       1.0  0.14116  0.74170  0.42884  1.0000
  N   N6        1.0  0.09608  0.73788  0.51876  1.0000
  O   O7        1.0  0.09717  0.76387  0.54531  1.0000
  C   C30       1.0  0.09663  0.85165  0.34523  1.0000
  C   C31       1.0  0.13974  0.90053  0.42852  1.0000
  C   C32       1.0  0.10952  0.86966  0.42713  1.0000
  N   N7        1.0  0.15170  0.91500  0.51418  1.0000
  N   N8        1.0  0.09428  0.85691  0.51155  1.0000
  O   O8        1.0  0.09583  0.83210  0.53633  1.0000
  C   C33       1.0  0.19395  0.26403  0.34382  1.0000
  H   H13       1.0  0.19809  0.22228  0.33757  1.0000
  H   H14       1.0  0.17994  0.31177  0.31593  1.0000
  H   H15       1.0  0.19890  0.37051  0.30386  1.0000
  H   H16       1.0  0.15512  0.25528  0.20751  1.0000
  H   H17       1.0  0.15764  0.40443  0.20889  1.0000
  N   N9        1.0  0.19514  0.31479  0.36370  1.0000
  C   C34       1.0  0.19381  0.43240  0.35176  1.0000
  N   N10       1.0  0.19601  0.38250  0.35275  1.0000
  H   H18       1.0  0.17532  0.37124  0.38374  1.0000
  H   H19       1.0  0.19821  0.47841  0.35590  1.0000
  C   C35       1.0  0.15861  0.24696  0.34596  1.0000
  N   N11       1.0  0.15459  0.23940  0.51229  1.0000
  O   O9        1.0  0.16115  0.21648  0.51277  1.0000
  O   O10       1.0  0.17957  0.26585  0.53581  1.0000
  C   C36       1.0  0.15848  0.41414  0.34817  1.0000
  O   O11       1.0  0.17665  0.41370  0.53908  1.0000
  O   O12       1.0  0.15772  0.44429  0.51740  1.0000
  C   C37       1.0  0.19395  0.76403  0.34382  1.0000
  H   H20       1.0  0.19809  0.72228  0.33757  1.0000
  H   H21       1.0  0.17994  0.81177  0.31593  1.0000
  H   H22       1.0  0.19890  0.87051  0.30386  1.0000
  H   H23       1.0  0.15511  0.75528  0.20751  1.0000
  H   H24       1.0  0.15764  0.90443  0.20889  1.0000
  N   N12       1.0  0.19514  0.81479  0.36370  1.0000
  C   C38       1.0  0.19381  0.93239  0.35176  1.0000
  N   N13       1.0  0.19601  0.88250  0.35275  1.0000
  H   H25       1.0  0.17532  0.87124  0.38374  1.0000
  H   H26       1.0  0.19821  0.97841  0.35590  1.0000
  C   C39       1.0  0.15861  0.74697  0.34596  1.0000
  N   N14       1.0  0.15459  0.73941  0.51229  1.0000
  O   O13       1.0  0.16115  0.71648  0.51277  1.0000
  O   O14       1.0  0.17957  0.76585  0.53581  1.0000
  C   C40       1.0  0.15848  0.91414  0.34817  1.0000
  O   O15       1.0  0.17665  0.91370  0.53908  1.0000
  O   O16       1.0  0.15772  0.94429  0.51740  1.0000
  C   C41       1.0  0.48830  0.24523  0.34770  1.0000
  C   C42       1.0  0.46908  0.20996  0.34191  1.0000
  C   C43       1.0  0.43422  0.19188  0.34120  1.0000
  H   H27       1.0  0.48014  0.19611  0.33594  1.0000
  H   H28       1.0  0.37316  0.18119  0.30555  1.0000
  C   C44       1.0  0.26491  0.24501  0.34832  1.0000
  C   C45       1.0  0.30020  0.26098  0.34386  1.0000
  C   C46       1.0  0.31825  0.24418  0.34664  1.0000
  H   H29       1.0  0.31408  0.28584  0.33677  1.0000
  C   C47       1.0  0.24727  0.26316  0.34777  1.0000
  C   C48       1.0  0.21199  0.24719  0.34320  1.0000
  H   H30       1.0  0.33073  0.19543  0.31844  1.0000
  C   C49       1.0  0.26510  0.02207  0.34643  1.0000
  C   C50       1.0  0.24892  0.04120  0.34148  1.0000
  C   C51       1.0  0.26556  0.07608  0.33946  1.0000
  H   H31       1.0  0.22397  0.03002  0.33677  1.0000
  C   C52       1.0  0.24727  0.48629  0.34615  1.0000
  C   C53       1.0  0.24684  0.43231  0.33771  1.0000
  C   C54       1.0  0.26346  0.46718  0.34047  1.0000
  H   H32       1.0  0.28841  0.47836  0.33591  1.0000
  H   H33       1.0  0.31263  0.13814  0.30863  1.0000
  C   C55       1.0  0.26225  0.39590  0.26313  1.0000
  C   C56       1.0  0.26205  0.36574  0.26815  1.0000
  H   H34       1.0  0.25599  0.35168  0.21100  1.0000
  H   H35       1.0  0.25621  0.40199  0.20269  1.0000
  C   C57       1.0  0.36908  0.25900  0.26761  1.0000
  C   C58       1.0  0.39924  0.25913  0.26983  1.0000
  H   H36       1.0  0.40653  0.25272  0.21198  1.0000
  H   H37       1.0  0.35615  0.25237  0.20844  1.0000
  C   C59       1.0  0.24984  0.11234  0.26524  1.0000
  C   C60       1.0  0.25013  0.14255  0.27073  1.0000
  H   H38       1.0  0.25627  0.15672  0.21379  1.0000
  H   H39       1.0  0.25600  0.10640  0.20479  1.0000
  C   C61       1.0  0.39795  0.14095  0.26321  1.0000
  C   C62       1.0  0.36789  0.11086  0.26612  1.0000
  H   H40       1.0  0.35410  0.10333  0.20843  1.0000
  H   H41       1.0  0.40433  0.15363  0.20364  1.0000
  C   C63       1.0  0.41764  0.21013  0.35012  1.0000
  C   C64       1.0  0.43458  0.24512  0.35505  1.0000
  C   C65       1.0  0.46942  0.26165  0.35297  1.0000
  N   N15       1.0  0.38465  0.19281  0.35961  1.0000
  H   H42       1.0  0.37432  0.20252  0.39406  1.0000
  H   H43       1.0  0.48070  0.28661  0.35734  1.0000
  C   C66       1.0  0.29999  0.20939  0.35775  1.0000
  C   C67       1.0  0.26496  0.19141  0.35998  1.0000
  C   C68       1.0  0.24847  0.20970  0.35355  1.0000
  N   N16       1.0  0.31716  0.19367  0.36961  1.0000
  C   C69       1.0  0.26372  0.29847  0.35250  1.0000
  C   C70       1.0  0.24725  0.31681  0.35699  1.0000
  C   C71       1.0  0.21223  0.29888  0.35347  1.0000
  H   H44       1.0  0.20504  0.33570  0.39414  1.0000
  H   H45       1.0  0.30736  0.17292  0.40077  1.0000
  H   H46       1.0  0.22346  0.19599  0.35514  1.0000
  H   H47       1.0  0.28872  0.31215  0.35500  1.0000
  C   C72       1.0  0.30049  0.09286  0.34685  1.0000
  C   C73       1.0  0.31855  0.07594  0.35262  1.0000
  C   C74       1.0  0.30038  0.04111  0.35110  1.0000
  N   N17       1.0  0.31651  0.12593  0.35471  1.0000
  C   C75       1.0  0.21199  0.46724  0.35111  1.0000
  C   C76       1.0  0.21192  0.41555  0.34500  1.0000
  H   H48       1.0  0.33745  0.13727  0.38456  1.0000
  H   H49       1.0  0.31418  0.02993  0.35495  1.0000
  C   C77       1.0  0.26393  0.41405  0.34106  1.0000
  C   C78       1.0  0.26439  0.35208  0.35094  1.0000
  C   C79       1.0  0.26945  0.37174  0.42936  1.0000
  C   C80       1.0  0.26887  0.40197  0.42462  1.0000
  N   N18       1.0  0.27203  0.36070  0.51632  1.0000
  N   N19       1.0  0.27089  0.41782  0.50766  1.0000
  O   O17       1.0  0.24583  0.33601  0.54268  1.0000
  O   O18       1.0  0.29394  0.44724  0.50842  1.0000
  O   O19       1.0  0.29527  0.35466  0.52103  1.0000
  O   O20       1.0  0.24442  0.41652  0.52996  1.0000
  C   C81       1.0  0.35358  0.26116  0.34701  1.0000
  C   C82       1.0  0.41632  0.26216  0.35117  1.0000
  C   C83       1.0  0.40257  0.26747  0.43093  1.0000
  C   C84       1.0  0.37160  0.26659  0.42898  1.0000
  N   N20       1.0  0.41709  0.27038  0.51672  1.0000
  N   N21       1.0  0.35873  0.26921  0.51306  1.0000
  O   O21       1.0  0.41608  0.24435  0.54246  1.0000
  O   O22       1.0  0.35213  0.29210  0.51370  1.0000
  O   O23       1.0  0.44631  0.29381  0.51949  1.0000
  O   O24       1.0  0.33392  0.24285  0.53792  1.0000
  C   C85       1.0  0.24843  0.09430  0.34314  1.0000
  C   C86       1.0  0.24794  0.15616  0.35379  1.0000
  C   C87       1.0  0.24293  0.13644  0.43205  1.0000
  C   C88       1.0  0.24356  0.10626  0.42698  1.0000
  N   N22       1.0  0.24026  0.14736  0.51910  1.0000
  N   N23       1.0  0.24165  0.09035  0.50985  1.0000
  O   O25       1.0  0.26637  0.17210  0.54567  1.0000
  O   O26       1.0  0.21865  0.06091  0.51050  1.0000
  O   O27       1.0  0.21694  0.15329  0.52375  1.0000
  O   O28       1.0  0.26817  0.09171  0.53185  1.0000
  C   C89       1.0  0.41578  0.15653  0.34223  1.0000
  C   C90       1.0  0.35384  0.09410  0.34783  1.0000
  C   C91       1.0  0.37304  0.10807  0.42735  1.0000
  C   C92       1.0  0.40332  0.13886  0.42472  1.0000
  N   N24       1.0  0.36149  0.09388  0.51351  1.0000
  N   N25       1.0  0.41884  0.15199  0.50860  1.0000
  O   O29       1.0  0.33669  0.09530  0.53922  1.0000
  O   O30       1.0  0.44827  0.15839  0.50961  1.0000
  O   O31       1.0  0.35541  0.06457  0.51713  1.0000
  O   O32       1.0  0.41745  0.17696  0.53256  1.0000
  C   C93       1.0  0.48830  0.74523  0.34770  1.0000
  C   C94       1.0  0.46908  0.70996  0.34191  1.0000
  C   C95       1.0  0.43422  0.69188  0.34120  1.0000
  H   H50       1.0  0.48014  0.69611  0.33594  1.0000
  H   H51       1.0  0.37316  0.68119  0.30555  1.0000
  C   C96       1.0  0.26491  0.74501  0.34832  1.0000
  C   C97       1.0  0.30020  0.76098  0.34386  1.0000
  C   C98       1.0  0.31825  0.74418  0.34664  1.0000
  H   H52       1.0  0.31408  0.78585  0.33677  1.0000
  C   C99       1.0  0.24727  0.76316  0.34777  1.0000
  C   C100      1.0  0.21199  0.74719  0.34320  1.0000
  H   H53       1.0  0.33073  0.69543  0.31844  1.0000
  C   C101      1.0  0.26510  0.52207  0.34643  1.0000
  C   C102      1.0  0.24892  0.54120  0.34148  1.0000
  C   C103      1.0  0.26556  0.57608  0.33946  1.0000
  H   H54       1.0  0.22397  0.53002  0.33677  1.0000
  C   C104      1.0  0.24727  0.98629  0.34615  1.0000
  C   C105      1.0  0.24684  0.93231  0.33771  1.0000
  C   C106      1.0  0.26346  0.96718  0.34047  1.0000
  H   H55       1.0  0.28841  0.97836  0.33590  1.0000
  H   H56       1.0  0.31263  0.63814  0.30863  1.0000
  C   C107      1.0  0.26224  0.89590  0.26313  1.0000
  C   C108      1.0  0.26205  0.86574  0.26815  1.0000
  H   H57       1.0  0.25599  0.85168  0.21100  1.0000
  H   H58       1.0  0.25621  0.90199  0.20269  1.0000
  C   C109      1.0  0.36908  0.75901  0.26761  1.0000
  C   C110      1.0  0.39924  0.75913  0.26983  1.0000
  H   H59       1.0  0.40653  0.75272  0.21198  1.0000
  H   H60       1.0  0.35615  0.75237  0.20844  1.0000
  C   C111      1.0  0.24984  0.61234  0.26524  1.0000
  C   C112      1.0  0.25013  0.64255  0.27073  1.0000
  H   H61       1.0  0.25627  0.65672  0.21379  1.0000
  H   H62       1.0  0.25600  0.60640  0.20479  1.0000
  C   C113      1.0  0.39795  0.64095  0.26321  1.0000
  C   C114      1.0  0.36789  0.61086  0.26612  1.0000
  H   H63       1.0  0.35410  0.60333  0.20843  1.0000
  H   H64       1.0  0.40432  0.65363  0.20364  1.0000
  C   C115      1.0  0.41763  0.71013  0.35012  1.0000
  C   C116      1.0  0.43458  0.74512  0.35505  1.0000
  C   C117      1.0  0.46941  0.76165  0.35297  1.0000
  N   N26       1.0  0.38465  0.69281  0.35961  1.0000
  H   H65       1.0  0.37432  0.70252  0.39406  1.0000
  H   H66       1.0  0.48070  0.78661  0.35734  1.0000
  C   C118      1.0  0.29999  0.70939  0.35775  1.0000
  C   C119      1.0  0.26496  0.69141  0.35998  1.0000
  C   C120      1.0  0.24847  0.70970  0.35355  1.0000
  N   N27       1.0  0.31716  0.69366  0.36961  1.0000
  C   C121      1.0  0.26372  0.79847  0.35250  1.0000
  C   C122      1.0  0.24725  0.81681  0.35699  1.0000
  C   C123      1.0  0.21223  0.79888  0.35347  1.0000
  H   H67       1.0  0.20504  0.83571  0.39414  1.0000
  H   H68       1.0  0.30736  0.67292  0.40077  1.0000
  H   H69       1.0  0.22346  0.69599  0.35514  1.0000
  H   H70       1.0  0.28872  0.81215  0.35500  1.0000
  C   C124      1.0  0.30049  0.59286  0.34685  1.0000
  C   C125      1.0  0.31855  0.57594  0.35261  1.0000
  C   C126      1.0  0.30038  0.54111  0.35110  1.0000
  N   N28       1.0  0.31651  0.62593  0.35471  1.0000
  C   C127      1.0  0.21199  0.96724  0.35111  1.0000
  C   C128      1.0  0.21192  0.91555  0.34500  1.0000
  H   H71       1.0  0.33745  0.63727  0.38455  1.0000
  H   H72       1.0  0.31418  0.52994  0.35495  1.0000
  C   C129      1.0  0.26393  0.91405  0.34106  1.0000
  C   C130      1.0  0.26439  0.85208  0.35094  1.0000
  C   C131      1.0  0.26945  0.87174  0.42936  1.0000
  C   C132      1.0  0.26887  0.90197  0.42462  1.0000
  N   N29       1.0  0.27203  0.86070  0.51632  1.0000
  N   N30       1.0  0.27089  0.91782  0.50766  1.0000
  O   O33       1.0  0.24583  0.83601  0.54268  1.0000
  O   O34       1.0  0.29394  0.94725  0.50842  1.0000
  O   O35       1.0  0.29526  0.85466  0.52103  1.0000
  O   O36       1.0  0.24442  0.91652  0.52996  1.0000
  C   C133      1.0  0.35358  0.76116  0.34701  1.0000
  C   C134      1.0  0.41631  0.76216  0.35117  1.0000
  C   C135      1.0  0.40257  0.76747  0.43093  1.0000
  C   C136      1.0  0.37160  0.76659  0.42898  1.0000
  N   N31       1.0  0.41709  0.77038  0.51672  1.0000
  N   N32       1.0  0.35873  0.76921  0.51306  1.0000
  O   O37       1.0  0.41607  0.74435  0.54246  1.0000
  O   O38       1.0  0.35213  0.79210  0.51370  1.0000
  O   O39       1.0  0.44631  0.79381  0.51949  1.0000
  O   O40       1.0  0.33392  0.74285  0.53792  1.0000
  C   C137      1.0  0.24843  0.59430  0.34314  1.0000
  C   C138      1.0  0.24794  0.65616  0.35379  1.0000
  C   C139      1.0  0.24293  0.63644  0.43205  1.0000
  C   C140      1.0  0.24356  0.60626  0.42698  1.0000
  N   N33       1.0  0.24026  0.64737  0.51910  1.0000
  N   N34       1.0  0.24165  0.59035  0.50985  1.0000
  O   O41       1.0  0.26637  0.67210  0.54567  1.0000
  O   O42       1.0  0.21865  0.56091  0.51050  1.0000
  O   O43       1.0  0.21694  0.65329  0.52375  1.0000
  O   O44       1.0  0.26817  0.59171  0.53184  1.0000
  C   C141      1.0  0.41578  0.65653  0.34223  1.0000
  C   C142      1.0  0.35384  0.59410  0.34782  1.0000
  C   C143      1.0  0.37304  0.60806  0.42735  1.0000
  C   C144      1.0  0.40331  0.63887  0.42472  1.0000
  N   N35       1.0  0.36149  0.59388  0.51350  1.0000
  N   N36       1.0  0.41884  0.65199  0.50860  1.0000
  O   O45       1.0  0.33669  0.59530  0.53922  1.0000
  O   O46       1.0  0.44827  0.65839  0.50961  1.0000
  O   O47       1.0  0.35541  0.56457  0.51712  1.0000
  O   O48       1.0  0.41745  0.67696  0.53256  1.0000
  C   C145      1.0  0.98830  0.24523  0.34770  1.0000
  C   C146      1.0  0.96908  0.20996  0.34191  1.0000
  C   C147      1.0  0.93422  0.19188  0.34120  1.0000
  H   H73       1.0  0.98014  0.19611  0.33594  1.0000
  C   C148      1.0  0.52405  0.26294  0.34854  1.0000
  C   C149      1.0  0.57814  0.31631  0.34569  1.0000
  C   C150      1.0  0.54329  0.29823  0.34360  1.0000
  H   H74       1.0  0.53227  0.31207  0.33621  1.0000
  H   H75       1.0  0.63888  0.32666  0.31131  1.0000
  H   H76       1.0  0.87316  0.18119  0.30555  1.0000
  C   C151      1.0  0.76491  0.24501  0.34832  1.0000
  C   C152      1.0  0.80020  0.26098  0.34386  1.0000
  C   C153      1.0  0.81825  0.24418  0.34664  1.0000
  H   H77       1.0  0.81408  0.28584  0.33677  1.0000
  C   C154      1.0  0.74727  0.26316  0.34777  1.0000
  C   C155      1.0  0.69395  0.26403  0.34382  1.0000
  C   C156      1.0  0.71199  0.24719  0.34320  1.0000
  H   H78       1.0  0.69809  0.22228  0.33757  1.0000
  H   H79       1.0  0.67993  0.31177  0.31593  1.0000
  H   H80       1.0  0.83073  0.19543  0.31844  1.0000
  C   C157      1.0  0.76510  0.02207  0.34643  1.0000
  C   C158      1.0  0.74892  0.04120  0.34148  1.0000
  C   C159      1.0  0.76556  0.07608  0.33946  1.0000
  H   H81       1.0  0.72397  0.03002  0.33677  1.0000
  C   C160      1.0  0.74727  0.48629  0.34615  1.0000
  C   C161      1.0  0.74684  0.43231  0.33771  1.0000
  C   C162      1.0  0.76346  0.46718  0.34047  1.0000
  H   H82       1.0  0.78841  0.47836  0.33591  1.0000
  H   H83       1.0  0.69890  0.37051  0.30386  1.0000
  H   H84       1.0  0.81263  0.13814  0.30863  1.0000
  C   C163      1.0  0.64258  0.24880  0.26731  1.0000
  C   C164      1.0  0.61249  0.24879  0.27118  1.0000
  H   H85       1.0  0.60483  0.25513  0.21389  1.0000
  H   H86       1.0  0.65512  0.25528  0.20751  1.0000
  C   C165      1.0  0.76225  0.39590  0.26313  1.0000
  C   C166      1.0  0.76205  0.36574  0.26815  1.0000
  H   H87       1.0  0.75600  0.35168  0.21100  1.0000
  H   H88       1.0  0.75621  0.40199  0.20269  1.0000
  C   C167      1.0  0.61407  0.36699  0.26550  1.0000
  C   C168      1.0  0.64412  0.39711  0.26706  1.0000
  H   H89       1.0  0.65764  0.40443  0.20889  1.0000
  H   H90       1.0  0.60741  0.35400  0.20642  1.0000
  C   C169      1.0  0.86908  0.25900  0.26761  1.0000
  C   C170      1.0  0.89924  0.25913  0.26983  1.0000
  H   H91       1.0  0.90653  0.25272  0.21198  1.0000
  H   H92       1.0  0.85615  0.25237  0.20844  1.0000
  C   C171      1.0  0.74984  0.11234  0.26524  1.0000
  C   C172      1.0  0.75013  0.14255  0.27073  1.0000
  H   H93       1.0  0.75627  0.15672  0.21379  1.0000
  H   H94       1.0  0.75600  0.10640  0.20479  1.0000
  C   C173      1.0  0.89795  0.14095  0.26321  1.0000
  C   C174      1.0  0.86789  0.11086  0.26612  1.0000
  H   H95       1.0  0.85410  0.10333  0.20843  1.0000
  H   H96       1.0  0.90433  0.15363  0.20364  1.0000
  C   C175      1.0  0.91763  0.21013  0.35012  1.0000
  C   C176      1.0  0.93458  0.24512  0.35505  1.0000
  C   C177      1.0  0.96942  0.26165  0.35297  1.0000
  N   N37       1.0  0.88465  0.19281  0.35961  1.0000
  C   C178      1.0  0.54292  0.24651  0.35408  1.0000
  C   C179      1.0  0.57771  0.26304  0.35887  1.0000
  C   C180      1.0  0.59467  0.29805  0.35576  1.0000
  N   N38       1.0  0.62762  0.31537  0.36601  1.0000
  H   H97       1.0  0.63806  0.30562  0.39991  1.0000
  H   H98       1.0  0.87432  0.20252  0.39406  1.0000
  H   H99       1.0  0.98070  0.28661  0.35734  1.0000
  H   H100      1.0  0.53164  0.22152  0.35676  1.0000
  C   C181      1.0  0.79998  0.20939  0.35775  1.0000
  C   C182      1.0  0.76496  0.19141  0.35998  1.0000
  C   C183      1.0  0.74847  0.20970  0.35355  1.0000
  N   N39       1.0  0.81716  0.19367  0.36961  1.0000
  C   C184      1.0  0.76372  0.29847  0.35250  1.0000
  C   C185      1.0  0.74725  0.31681  0.35699  1.0000
  C   C186      1.0  0.71223  0.29888  0.35347  1.0000
  N   N40       1.0  0.69514  0.31479  0.36370  1.0000
  H   H101      1.0  0.70504  0.33570  0.39414  1.0000
  H   H102      1.0  0.80736  0.17292  0.40077  1.0000
  H   H103      1.0  0.72346  0.19599  0.35514  1.0000
  H   H104      1.0  0.78872  0.31215  0.35500  1.0000
  C   C187      1.0  0.80049  0.09286  0.34685  1.0000
  C   C188      1.0  0.81856  0.07594  0.35262  1.0000
  C   C189      1.0  0.80038  0.04111  0.35110  1.0000
  N   N41       1.0  0.81651  0.12593  0.35471  1.0000
  C   C190      1.0  0.71199  0.46724  0.35111  1.0000
  C   C191      1.0  0.69381  0.43240  0.35176  1.0000
  C   C192      1.0  0.71192  0.41555  0.34500  1.0000
  N   N42       1.0  0.69601  0.38250  0.35275  1.0000
  H   H105      1.0  0.67532  0.37124  0.38374  1.0000
  H   H106      1.0  0.83745  0.13727  0.38456  1.0000
  H   H107      1.0  0.81418  0.02993  0.35495  1.0000
  H   H108      1.0  0.69821  0.47841  0.35590  1.0000
  C   C193      1.0  0.65861  0.24696  0.34596  1.0000
  C   C194      1.0  0.59601  0.24609  0.35338  1.0000
  C   C195      1.0  0.61023  0.24088  0.43237  1.0000
  C   C196      1.0  0.64116  0.24170  0.42884  1.0000
  N   N43       1.0  0.59608  0.23788  0.51876  1.0000
  N   N44       1.0  0.65459  0.23940  0.51229  1.0000
  O   O49       1.0  0.59717  0.26387  0.54531  1.0000
  O   O50       1.0  0.66115  0.21648  0.51277  1.0000
  O   O51       1.0  0.56687  0.21445  0.52213  1.0000
  O   O52       1.0  0.67957  0.26585  0.53581  1.0000
  C   C197      1.0  0.76393  0.41405  0.34106  1.0000
  C   C198      1.0  0.76439  0.35208  0.35094  1.0000
  C   C199      1.0  0.76945  0.37174  0.42936  1.0000
  C   C200      1.0  0.76887  0.40197  0.42462  1.0000
  N   N45       1.0  0.77203  0.36070  0.51632  1.0000
  N   N46       1.0  0.77089  0.41782  0.50766  1.0000
  O   O53       1.0  0.74583  0.33601  0.54268  1.0000
  O   O54       1.0  0.79394  0.44724  0.50842  1.0000
  O   O55       1.0  0.79526  0.35466  0.52103  1.0000
  O   O56       1.0  0.74442  0.41652  0.52996  1.0000
  C   C201      1.0  0.59663  0.35165  0.34523  1.0000
  C   C202      1.0  0.65848  0.41414  0.34817  1.0000
  C   C203      1.0  0.63974  0.40053  0.42852  1.0000
  C   C204      1.0  0.60952  0.36966  0.42713  1.0000
  N   N47       1.0  0.65170  0.41500  0.51418  1.0000
  N   N48       1.0  0.59428  0.35691  0.51155  1.0000
  O   O57       1.0  0.67665  0.41370  0.53908  1.0000
  O   O58       1.0  0.56482  0.35042  0.51297  1.0000
  O   O59       1.0  0.65772  0.44429  0.51740  1.0000
  O   O60       1.0  0.59583  0.33210  0.53633  1.0000
  C   C205      1.0  0.85358  0.26116  0.34701  1.0000
  C   C206      1.0  0.91632  0.26216  0.35117  1.0000
  C   C207      1.0  0.90257  0.26747  0.43093  1.0000
  C   C208      1.0  0.87160  0.26659  0.42898  1.0000
  N   N49       1.0  0.91709  0.27038  0.51672  1.0000
  N   N50       1.0  0.85873  0.26921  0.51306  1.0000
  O   O61       1.0  0.91608  0.24435  0.54246  1.0000
  O   O62       1.0  0.85213  0.29210  0.51370  1.0000
  O   O63       1.0  0.94631  0.29381  0.51949  1.0000
  O   O64       1.0  0.83392  0.24285  0.53792  1.0000
  C   C209      1.0  0.74843  0.09430  0.34314  1.0000
  C   C210      1.0  0.74794  0.15616  0.35379  1.0000
  C   C211      1.0  0.74293  0.13644  0.43205  1.0000
  C   C212      1.0  0.74356  0.10626  0.42698  1.0000
  N   N51       1.0  0.74026  0.14736  0.51910  1.0000
  N   N52       1.0  0.74165  0.09035  0.50985  1.0000
  O   O65       1.0  0.76637  0.17210  0.54567  1.0000
  O   O66       1.0  0.71865  0.06091  0.51050  1.0000
  O   O67       1.0  0.71694  0.15329  0.52375  1.0000
  O   O68       1.0  0.76817  0.09171  0.53185  1.0000
  C   C213      1.0  0.91578  0.15653  0.34223  1.0000
  C   C214      1.0  0.85384  0.09410  0.34783  1.0000
  C   C215      1.0  0.87304  0.10807  0.42735  1.0000
  C   C216      1.0  0.90331  0.13886  0.42472  1.0000
  N   N53       1.0  0.86149  0.09388  0.51351  1.0000
  N   N54       1.0  0.91884  0.15199  0.50860  1.0000
  O   O69       1.0  0.83669  0.09530  0.53922  1.0000
  O   O70       1.0  0.94827  0.15839  0.50961  1.0000
  O   O71       1.0  0.85541  0.06457  0.51713  1.0000
  O   O72       1.0  0.91745  0.17696  0.53256  1.0000
  C   C217      1.0  0.98830  0.74523  0.34770  1.0000
  C   C218      1.0  0.96908  0.70996  0.34191  1.0000
  C   C219      1.0  0.93422  0.69188  0.34120  1.0000
  H   H109      1.0  0.98014  0.69611  0.33594  1.0000
  C   C220      1.0  0.52405  0.76294  0.34854  1.0000
  C   C221      1.0  0.57814  0.81631  0.34569  1.0000
  C   C222      1.0  0.54329  0.79823  0.34360  1.0000
  H   H110      1.0  0.53227  0.81207  0.33621  1.0000
  H   H111      1.0  0.63888  0.82666  0.31131  1.0000
  H   H112      1.0  0.87315  0.68119  0.30555  1.0000
  C   C223      1.0  0.76491  0.74501  0.34832  1.0000
  C   C224      1.0  0.80020  0.76098  0.34386  1.0000
  C   C225      1.0  0.81825  0.74418  0.34664  1.0000
  H   H113      1.0  0.81408  0.78585  0.33677  1.0000
  C   C226      1.0  0.74727  0.76316  0.34777  1.0000
  C   C227      1.0  0.69395  0.76403  0.34382  1.0000
  C   C228      1.0  0.71199  0.74719  0.34320  1.0000
  H   H114      1.0  0.69809  0.72228  0.33757  1.0000
  H   H115      1.0  0.67994  0.81177  0.31593  1.0000
  H   H116      1.0  0.83073  0.69543  0.31844  1.0000
  C   C229      1.0  0.76510  0.52207  0.34643  1.0000
  C   C230      1.0  0.74892  0.54120  0.34148  1.0000
  C   C231      1.0  0.76556  0.57608  0.33946  1.0000
  H   H117      1.0  0.72397  0.53002  0.33677  1.0000
  C   C232      1.0  0.74727  0.98629  0.34615  1.0000
  C   C233      1.0  0.74684  0.93231  0.33771  1.0000
  C   C234      1.0  0.76346  0.96718  0.34047  1.0000
  H   H118      1.0  0.78841  0.97836  0.33590  1.0000
  H   H119      1.0  0.69890  0.87051  0.30386  1.0000
  H   H120      1.0  0.81263  0.63814  0.30863  1.0000
  C   C235      1.0  0.64258  0.74880  0.26731  1.0000
  C   C236      1.0  0.61249  0.74879  0.27118  1.0000
  H   H121      1.0  0.60483  0.75513  0.21389  1.0000
  H   H122      1.0  0.65512  0.75528  0.20751  1.0000
  C   C237      1.0  0.76224  0.89590  0.26313  1.0000
  C   C238      1.0  0.76205  0.86574  0.26815  1.0000
  H   H123      1.0  0.75600  0.85168  0.21100  1.0000
  H   H124      1.0  0.75621  0.90199  0.20269  1.0000
  C   C239      1.0  0.61407  0.86698  0.26550  1.0000
  C   C240      1.0  0.64412  0.89711  0.26706  1.0000
  H   H125      1.0  0.65764  0.90443  0.20889  1.0000
  H   H126      1.0  0.60741  0.85400  0.20642  1.0000
  C   C241      1.0  0.86908  0.75901  0.26761  1.0000
  C   C242      1.0  0.89924  0.75913  0.26983  1.0000
  H   H127      1.0  0.90653  0.75272  0.21198  1.0000
  H   H128      1.0  0.85615  0.75237  0.20844  1.0000
  C   C243      1.0  0.74984  0.61234  0.26524  1.0000
  C   C244      1.0  0.75013  0.64255  0.27073  1.0000
  H   H129      1.0  0.75627  0.65672  0.21379  1.0000
  H   H130      1.0  0.75600  0.60640  0.20479  1.0000
  C   C245      1.0  0.89795  0.64095  0.26321  1.0000
  C   C246      1.0  0.86789  0.61086  0.26612  1.0000
  H   H131      1.0  0.85410  0.60333  0.20843  1.0000
  H   H132      1.0  0.90433  0.65363  0.20364  1.0000
  C   C247      1.0  0.91764  0.71013  0.35012  1.0000
  C   C248      1.0  0.93458  0.74512  0.35505  1.0000
  C   C249      1.0  0.96941  0.76165  0.35297  1.0000
  N   N55       1.0  0.88465  0.69281  0.35961  1.0000
  C   C250      1.0  0.54292  0.74651  0.35408  1.0000
  C   C251      1.0  0.57771  0.76304  0.35887  1.0000
  C   C252      1.0  0.59467  0.79805  0.35576  1.0000
  N   N56       1.0  0.62762  0.81537  0.36601  1.0000
  H   H133      1.0  0.63805  0.80562  0.39991  1.0000
  H   H134      1.0  0.87432  0.70252  0.39406  1.0000
  H   H135      1.0  0.98070  0.78661  0.35734  1.0000
  H   H136      1.0  0.53164  0.72152  0.35676  1.0000
  C   C253      1.0  0.79999  0.70939  0.35775  1.0000
  C   C254      1.0  0.76496  0.69141  0.35998  1.0000
  C   C255      1.0  0.74847  0.70970  0.35355  1.0000
  N   N57       1.0  0.81716  0.69366  0.36961  1.0000
  C   C256      1.0  0.76372  0.79847  0.35250  1.0000
  C   C257      1.0  0.74725  0.81681  0.35699  1.0000
  C   C258      1.0  0.71223  0.79888  0.35347  1.0000
  N   N58       1.0  0.69514  0.81479  0.36370  1.0000
  H   H137      1.0  0.70504  0.83571  0.39414  1.0000
  H   H138      1.0  0.80736  0.67292  0.40077  1.0000
  H   H139      1.0  0.72346  0.69599  0.35514  1.0000
  H   H140      1.0  0.78872  0.81215  0.35500  1.0000
  C   C259      1.0  0.80049  0.59286  0.34685  1.0000
  C   C260      1.0  0.81856  0.57594  0.35261  1.0000
  C   C261      1.0  0.80038  0.54111  0.35110  1.0000
  N   N59       1.0  0.81651  0.62593  0.35471  1.0000
  C   C262      1.0  0.71199  0.96724  0.35111  1.0000
  C   C263      1.0  0.69381  0.93239  0.35176  1.0000
  C   C264      1.0  0.71192  0.91555  0.34500  1.0000
  N   N60       1.0  0.69601  0.88250  0.35275  1.0000
  H   H141      1.0  0.67532  0.87124  0.38374  1.0000
  H   H142      1.0  0.83745  0.63727  0.38455  1.0000
  H   H143      1.0  0.81418  0.52994  0.35495  1.0000
  H   H144      1.0  0.69821  0.97841  0.35590  1.0000
  C   C265      1.0  0.65861  0.74697  0.34596  1.0000
  C   C266      1.0  0.59601  0.74609  0.35338  1.0000
  C   C267      1.0  0.61023  0.74088  0.43237  1.0000
  C   C268      1.0  0.64116  0.74170  0.42884  1.0000
  N   N61       1.0  0.59608  0.73788  0.51876  1.0000
  N   N62       1.0  0.65459  0.73941  0.51229  1.0000
  O   O73       1.0  0.59717  0.76387  0.54531  1.0000
  O   O74       1.0  0.66115  0.71648  0.51277  1.0000
  O   O75       1.0  0.56687  0.71445  0.52213  1.0000
  O   O76       1.0  0.67957  0.76585  0.53581  1.0000
  C   C269      1.0  0.76393  0.91405  0.34106  1.0000
  C   C270      1.0  0.76439  0.85208  0.35094  1.0000
  C   C271      1.0  0.76945  0.87174  0.42936  1.0000
  C   C272      1.0  0.76887  0.90197  0.42462  1.0000
  N   N63       1.0  0.77203  0.86070  0.51632  1.0000
  N   N64       1.0  0.77089  0.91782  0.50766  1.0000
  O   O77       1.0  0.74583  0.83601  0.54268  1.0000
  O   O78       1.0  0.79394  0.94725  0.50842  1.0000
  O   O79       1.0  0.79527  0.85466  0.52103  1.0000
  O   O80       1.0  0.74442  0.91652  0.52996  1.0000
  C   C273      1.0  0.59663  0.85165  0.34523  1.0000
  C   C274      1.0  0.65848  0.91414  0.34817  1.0000
  C   C275      1.0  0.63974  0.90053  0.42852  1.0000
  C   C276      1.0  0.60952  0.86966  0.42713  1.0000
  N   N65       1.0  0.65170  0.91500  0.51418  1.0000
  N   N66       1.0  0.59428  0.85691  0.51155  1.0000
  O   O81       1.0  0.67665  0.91370  0.53908  1.0000
  O   O82       1.0  0.56482  0.85042  0.51297  1.0000
  O   O83       1.0  0.65772  0.94429  0.51740  1.0000
  O   O84       1.0  0.59583  0.83210  0.53633  1.0000
  C   C277      1.0  0.85358  0.76116  0.34701  1.0000
  C   C278      1.0  0.91631  0.76216  0.35117  1.0000
  C   C279      1.0  0.90257  0.76747  0.43093  1.0000
  C   C280      1.0  0.87160  0.76659  0.42898  1.0000
  N   N67       1.0  0.91709  0.77038  0.51672  1.0000
  N   N68       1.0  0.85873  0.76921  0.51306  1.0000
  O   O85       1.0  0.91608  0.74435  0.54246  1.0000
  O   O86       1.0  0.85213  0.79210  0.51370  1.0000
  O   O87       1.0  0.94631  0.79381  0.51949  1.0000
  O   O88       1.0  0.83392  0.74285  0.53792  1.0000
  C   C281      1.0  0.74843  0.59430  0.34314  1.0000
  C   C282      1.0  0.74794  0.65616  0.35379  1.0000
  C   C283      1.0  0.74293  0.63644  0.43205  1.0000
  C   C284      1.0  0.74356  0.60626  0.42698  1.0000
  N   N69       1.0  0.74026  0.64737  0.51910  1.0000
  N   N70       1.0  0.74165  0.59035  0.50985  1.0000
  O   O89       1.0  0.76637  0.67210  0.54567  1.0000
  O   O90       1.0  0.71865  0.56091  0.51050  1.0000
  O   O91       1.0  0.71694  0.65329  0.52375  1.0000
  O   O92       1.0  0.76817  0.59171  0.53184  1.0000
  C   C285      1.0  0.91578  0.65653  0.34223  1.0000
  C   C286      1.0  0.85384  0.59410  0.34782  1.0000
  C   C287      1.0  0.87304  0.60806  0.42735  1.0000
  C   C288      1.0  0.90332  0.63887  0.42472  1.0000
  N   N71       1.0  0.86149  0.59388  0.51350  1.0000
  N   N72       1.0  0.91884  0.65199  0.50860  1.0000
  O   O93       1.0  0.83669  0.59530  0.53922  1.0000
  O   O94       1.0  0.94827  0.65839  0.50961  1.0000
  O   O95       1.0  0.85541  0.56457  0.51712  1.0000
  O   O96       1.0  0.91744  0.67696  0.53256  1.0000
