data_image0
_chemical_formula_structural       C2HCOHCOHC4H2C2OHC2OHC2HCOHCOHC4H2C2OHC2OHC2H2COHCOH4CHC3H2C2OHC2OH3C2H2COHCOH4CHC3H2C2OHC2OH3C5HC2O2H2C2O2C7HC8OHOHC4O2C5HC2O2H2C2O2C7HC8OHOHC4O2C2HCHC2O2H2C2O2H2C4H3CH2C4OHOHC4OHOHC2HCHC2O2H2C2O2H2C4H3CH2C4OHOHC4OHOHC2HC2HC2HC2HC2HC2HC2O2H2C2O2H2C2O2H2C2O2H2C2O2H2C2O2H2C4H2C4H2C4H2C4H2C4H2C4H2C4OHOHC4OHOHC4OHOHC4OHOHC4OHOHC4OHOHC2HC2HC2HC2HC2HC2HC2O2H2C2O2H2C2O2H2C2O2H2C2O2H2C2O2H2C4H2C4H2C4H2C4H2C4H2C4H2C4OHOHC4OHOHC4OHOHC4OHOHC4OHOHC4OHOH
_chemical_formula_sum              "C288 H168 O96"
_cell_length_a       46.8271
_cell_length_b       46.8271
_cell_length_c       14.8121
_cell_angle_alpha    90
_cell_angle_beta     90
_cell_angle_gamma    120

_space_group_name_H-M_alt    "P 1"
_space_group_IT_number       1

loop_
  _space_group_symop_operation_xyz
  'x, y, z'

loop_
  _atom_site_type_symbol
  _atom_site_label
  _atom_site_symmetry_multiplicity
  _atom_site_fract_x
  _atom_site_fract_y
  _atom_site_fract_z
  _atom_site_occupancy
  C   C1        1.0  0.04666  0.30068  0.34643  1.0000
  C   C2        1.0  0.08158  0.31855  0.34629  1.0000
  H   H1        1.0  0.03568  0.31470  0.34643  1.0000
  C   C3        1.0  0.11635  0.25013  0.26453  1.0000
  O   O1        1.0  0.10507  0.25471  0.18402  1.0000
  H   H2        1.0  0.08598  0.23327  0.16789  1.0000
  C   C4        1.0  0.11627  0.36946  0.26442  1.0000
  O   O2        1.0  0.10500  0.35365  0.18386  1.0000
  H   H3        1.0  0.08598  0.35611  0.16764  1.0000
  C   C5        1.0  0.02745  0.26530  0.34654  1.0000
  C   C6        1.0  0.09855  0.30086  0.34620  1.0000
  C   C7        1.0  0.08159  0.26620  0.34637  1.0000
  C   C8        1.0  0.04667  0.24915  0.34664  1.0000
  H   H4        1.0  0.12389  0.31353  0.34614  1.0000
  H   H5        1.0  0.03570  0.22415  0.34689  1.0000
  C   C9        1.0  0.11621  0.24999  0.42870  1.0000
  C   C10       1.0  0.10092  0.25062  0.34658  1.0000
  O   O3        1.0  0.10479  0.25448  0.50907  1.0000
  H   H6        1.0  0.08589  0.23293  0.52538  1.0000
  C   C11       1.0  0.10089  0.35345  0.34635  1.0000
  C   C12       1.0  0.11620  0.36928  0.42855  1.0000
  O   O4        1.0  0.10484  0.35336  0.50893  1.0000
  H   H7        1.0  0.08578  0.35576  0.52506  1.0000
  C   C13       1.0  0.04666  0.80067  0.34643  1.0000
  C   C14       1.0  0.08159  0.81855  0.34629  1.0000
  H   H8        1.0  0.03568  0.81469  0.34643  1.0000
  C   C15       1.0  0.11635  0.75013  0.26453  1.0000
  O   O5        1.0  0.10507  0.75470  0.18402  1.0000
  H   H9        1.0  0.08598  0.73327  0.16789  1.0000
  C   C16       1.0  0.11627  0.86945  0.26442  1.0000
  O   O6        1.0  0.10500  0.85365  0.18386  1.0000
  H   H10       1.0  0.08598  0.85611  0.16764  1.0000
  C   C17       1.0  0.02745  0.76530  0.34654  1.0000
  C   C18       1.0  0.09855  0.80086  0.34620  1.0000
  C   C19       1.0  0.08160  0.76620  0.34637  1.0000
  C   C20       1.0  0.04667  0.74915  0.34664  1.0000
  H   H11       1.0  0.12389  0.81353  0.34614  1.0000
  H   H12       1.0  0.03570  0.72415  0.34689  1.0000
  C   C21       1.0  0.11621  0.74999  0.42870  1.0000
  C   C22       1.0  0.10092  0.75062  0.34658  1.0000
  O   O7        1.0  0.10479  0.75448  0.50907  1.0000
  H   H13       1.0  0.08589  0.73293  0.52538  1.0000
  C   C23       1.0  0.10089  0.85345  0.34635  1.0000
  C   C24       1.0  0.11620  0.86928  0.42855  1.0000
  O   O8        1.0  0.10484  0.85336  0.50893  1.0000
  H   H14       1.0  0.08578  0.85576  0.52506  1.0000
  C   C25       1.0  0.21517  0.24912  0.34683  1.0000
  C   C26       1.0  0.19730  0.26617  0.34685  1.0000
  H   H15       1.0  0.20114  0.22412  0.34678  1.0000
  H   H16       1.0  0.22734  0.03254  0.34630  1.0000
  C   C27       1.0  0.14656  0.25013  0.26466  1.0000
  O   O9        1.0  0.16248  0.25466  0.18430  1.0000
  H   H17       1.0  0.15987  0.23314  0.16793  1.0000
  C   C28       1.0  0.14649  0.39966  0.26470  1.0000
  O   O10       1.0  0.16238  0.41111  0.18431  1.0000
  H   H18       1.0  0.15976  0.43003  0.16813  1.0000
  H   H19       1.0  0.23649  0.15683  0.16762  1.0000
  H   H20       1.0  0.23639  0.08281  0.16782  1.0000
  H   H21       1.0  0.22731  0.19797  0.34689  1.0000
  C   C29       1.0  0.21500  0.30083  0.34695  1.0000
  H   H22       1.0  0.20234  0.31350  0.34698  1.0000
  C   C30       1.0  0.21503  0.41737  0.34701  1.0000
  C   C31       1.0  0.19733  0.43433  0.34673  1.0000
  C   C32       1.0  0.21520  0.46925  0.34635  1.0000
  H   H23       1.0  0.20237  0.39204  0.34723  1.0000
  H   H24       1.0  0.20117  0.48022  0.34620  1.0000
  C   C33       1.0  0.16240  0.25060  0.34684  1.0000
  C   C34       1.0  0.14642  0.24999  0.42884  1.0000
  O   O11       1.0  0.16225  0.25445  0.50932  1.0000
  H   H25       1.0  0.15968  0.23292  0.52552  1.0000
  C   C35       1.0  0.14643  0.39948  0.42868  1.0000
  C   C36       1.0  0.16245  0.41500  0.34681  1.0000
  O   O12       1.0  0.16228  0.41077  0.50919  1.0000
  H   H26       1.0  0.15962  0.42964  0.52573  1.0000
  H   H27       1.0  0.23598  0.15654  0.52509  1.0000
  H   H28       1.0  0.23605  0.08284  0.52540  1.0000
  C   C37       1.0  0.21517  0.74912  0.34683  1.0000
  C   C38       1.0  0.19730  0.76617  0.34686  1.0000
  H   H29       1.0  0.20115  0.72412  0.34678  1.0000
  H   H30       1.0  0.22734  0.53254  0.34630  1.0000
  C   C39       1.0  0.14656  0.75013  0.26466  1.0000
  O   O13       1.0  0.16249  0.75467  0.18430  1.0000
  H   H31       1.0  0.15987  0.73314  0.16793  1.0000
  C   C40       1.0  0.14649  0.89966  0.26470  1.0000
  O   O14       1.0  0.16238  0.91111  0.18431  1.0000
  H   H32       1.0  0.15976  0.93003  0.16813  1.0000
  H   H33       1.0  0.23649  0.65683  0.16762  1.0000
  H   H34       1.0  0.23639  0.58281  0.16782  1.0000
  H   H35       1.0  0.22731  0.69798  0.34689  1.0000
  C   C41       1.0  0.21500  0.80083  0.34695  1.0000
  H   H36       1.0  0.20234  0.81350  0.34698  1.0000
  C   C42       1.0  0.21503  0.91738  0.34701  1.0000
  C   C43       1.0  0.19733  0.93433  0.34673  1.0000
  C   C44       1.0  0.21520  0.96925  0.34635  1.0000
  H   H37       1.0  0.20237  0.89204  0.34723  1.0000
  H   H38       1.0  0.20117  0.98022  0.34620  1.0000
  C   C45       1.0  0.16240  0.75060  0.34684  1.0000
  C   C46       1.0  0.14642  0.74999  0.42884  1.0000
  O   O15       1.0  0.16225  0.75445  0.50932  1.0000
  H   H39       1.0  0.15968  0.73292  0.52552  1.0000
  C   C47       1.0  0.14643  0.89948  0.42868  1.0000
  C   C48       1.0  0.16245  0.91500  0.34681  1.0000
  O   O16       1.0  0.16228  0.91077  0.50919  1.0000
  H   H40       1.0  0.15961  0.92964  0.52573  1.0000
  H   H41       1.0  0.23598  0.65654  0.52509  1.0000
  H   H42       1.0  0.23605  0.58284  0.52540  1.0000
  C   C49       1.0  0.30385  0.26353  0.34668  1.0000
  C   C50       1.0  0.26939  0.07843  0.34665  1.0000
  C   C51       1.0  0.25233  0.04351  0.34638  1.0000
  C   C52       1.0  0.26674  0.46926  0.34633  1.0000
  C   C53       1.0  0.24969  0.43434  0.34677  1.0000
  H   H43       1.0  0.29174  0.48023  0.34618  1.0000
  C   C54       1.0  0.26600  0.36947  0.26492  1.0000
  C   C55       1.0  0.26600  0.39968  0.26489  1.0000
  O   O17       1.0  0.26153  0.35364  0.18441  1.0000
  O   O18       1.0  0.26157  0.41107  0.18438  1.0000
  H   H44       1.0  0.28304  0.35615  0.16831  1.0000
  H   H45       1.0  0.28314  0.42992  0.16803  1.0000
  C   C56       1.0  0.25333  0.14333  0.26433  1.0000
  C   C57       1.0  0.25334  0.11312  0.26455  1.0000
  O   O19       1.0  0.25792  0.15917  0.18380  1.0000
  O   O20       1.0  0.25790  0.10174  0.18419  1.0000
  C   C58       1.0  0.26847  0.24737  0.34671  1.0000
  C   C59       1.0  0.25231  0.21200  0.34665  1.0000
  C   C60       1.0  0.26936  0.19413  0.34614  1.0000
  C   C61       1.0  0.30402  0.21182  0.34587  1.0000
  C   C62       1.0  0.25055  0.26527  0.34681  1.0000
  C   C63       1.0  0.24966  0.31851  0.34690  1.0000
  C   C64       1.0  0.26671  0.30064  0.34674  1.0000
  H   H46       1.0  0.29171  0.31467  0.34662  1.0000
  C   C65       1.0  0.26849  0.02430  0.34626  1.0000
  C   C66       1.0  0.30387  0.04351  0.34627  1.0000
  C   C67       1.0  0.30405  0.09539  0.34693  1.0000
  C   C68       1.0  0.25057  0.48846  0.34627  1.0000
  C   C69       1.0  0.26527  0.41504  0.34680  1.0000
  C   C70       1.0  0.26570  0.39955  0.42881  1.0000
  C   C71       1.0  0.26569  0.36933  0.42884  1.0000
  C   C72       1.0  0.26525  0.35340  0.34687  1.0000
  O   O21       1.0  0.26102  0.35343  0.50931  1.0000
  H   H47       1.0  0.28247  0.35589  0.52581  1.0000
  O   O22       1.0  0.26104  0.41080  0.50926  1.0000
  H   H48       1.0  0.28247  0.42985  0.52561  1.0000
  C   C73       1.0  0.25381  0.09774  0.34674  1.0000
  C   C74       1.0  0.25313  0.11312  0.42864  1.0000
  C   C75       1.0  0.25309  0.14331  0.42848  1.0000
  C   C76       1.0  0.25377  0.15923  0.34633  1.0000
  O   O23       1.0  0.25754  0.15921  0.50885  1.0000
  O   O24       1.0  0.25759  0.10176  0.50915  1.0000
  C   C77       1.0  0.30385  0.76353  0.34668  1.0000
  C   C78       1.0  0.26939  0.57843  0.34665  1.0000
  C   C79       1.0  0.25233  0.54351  0.34638  1.0000
  C   C80       1.0  0.26674  0.96926  0.34633  1.0000
  C   C81       1.0  0.24969  0.93434  0.34677  1.0000
  H   H49       1.0  0.29174  0.98023  0.34618  1.0000
  C   C82       1.0  0.26600  0.86947  0.26492  1.0000
  C   C83       1.0  0.26600  0.89968  0.26489  1.0000
  O   O25       1.0  0.26153  0.85364  0.18441  1.0000
  O   O26       1.0  0.26157  0.91107  0.18438  1.0000
  H   H50       1.0  0.28304  0.85615  0.16831  1.0000
  H   H51       1.0  0.28314  0.92992  0.16803  1.0000
  C   C84       1.0  0.25333  0.64333  0.26433  1.0000
  C   C85       1.0  0.25335  0.61312  0.26455  1.0000
  O   O27       1.0  0.25792  0.65917  0.18380  1.0000
  O   O28       1.0  0.25790  0.60174  0.18419  1.0000
  C   C86       1.0  0.26847  0.74737  0.34671  1.0000
  C   C87       1.0  0.25231  0.71200  0.34665  1.0000
  C   C88       1.0  0.26936  0.69413  0.34614  1.0000
  C   C89       1.0  0.30402  0.71182  0.34587  1.0000
  C   C90       1.0  0.25055  0.76527  0.34681  1.0000
  C   C91       1.0  0.24966  0.81851  0.34690  1.0000
  C   C92       1.0  0.26671  0.80064  0.34674  1.0000
  H   H52       1.0  0.29171  0.81467  0.34662  1.0000
  C   C93       1.0  0.26849  0.52430  0.34626  1.0000
  C   C94       1.0  0.30387  0.54351  0.34627  1.0000
  C   C95       1.0  0.30405  0.59539  0.34693  1.0000
  C   C96       1.0  0.25057  0.98847  0.34627  1.0000
  C   C97       1.0  0.26527  0.91504  0.34680  1.0000
  C   C98       1.0  0.26570  0.89955  0.42881  1.0000
  C   C99       1.0  0.26569  0.86933  0.42884  1.0000
  C   C100      1.0  0.26524  0.85340  0.34687  1.0000
  O   O29       1.0  0.26102  0.85343  0.50931  1.0000
  H   H53       1.0  0.28247  0.85589  0.52581  1.0000
  O   O30       1.0  0.26104  0.91080  0.50926  1.0000
  H   H54       1.0  0.28247  0.92985  0.52561  1.0000
  C   C101      1.0  0.25381  0.59774  0.34674  1.0000
  C   C102      1.0  0.25313  0.61312  0.42864  1.0000
  C   C103      1.0  0.25309  0.64331  0.42848  1.0000
  C   C104      1.0  0.25377  0.65923  0.34633  1.0000
  O   O31       1.0  0.25754  0.65921  0.50885  1.0000
  O   O32       1.0  0.25759  0.60176  0.50915  1.0000
  C   C105      1.0  0.43748  0.19414  0.34675  1.0000
  C   C106      1.0  0.47240  0.21202  0.34648  1.0000
  H   H55       1.0  0.48338  0.19799  0.34626  1.0000
  C   C107      1.0  0.32172  0.24648  0.34616  1.0000
  H   H56       1.0  0.31787  0.28852  0.34697  1.0000
  C   C108      1.0  0.40276  0.26250  0.26461  1.0000
  C   C109      1.0  0.37254  0.26249  0.26438  1.0000
  O   O33       1.0  0.41410  0.25790  0.18424  1.0000
  O   O34       1.0  0.35668  0.25785  0.18384  1.0000
  H   H57       1.0  0.43315  0.27936  0.16803  1.0000
  H   H58       1.0  0.35908  0.27929  0.16747  1.0000
  C   C110      1.0  0.37265  0.11296  0.26470  1.0000
  C   C111      1.0  0.40286  0.14318  0.26469  1.0000
  O   O35       1.0  0.35683  0.10157  0.18420  1.0000
  O   O36       1.0  0.41428  0.15901  0.18422  1.0000
  H   H59       1.0  0.35928  0.08253  0.16828  1.0000
  H   H60       1.0  0.43314  0.15629  0.16794  1.0000
  C   C112      1.0  0.49162  0.24739  0.34660  1.0000
  C   C113      1.0  0.47240  0.26355  0.34672  1.0000
  C   C114      1.0  0.43748  0.24649  0.34677  1.0000
  C   C115      1.0  0.42052  0.21184  0.34687  1.0000
  H   H61       1.0  0.48337  0.28854  0.34676  1.0000
  H   H62       1.0  0.39518  0.19917  0.34693  1.0000
  H   H63       1.0  0.31669  0.19915  0.34570  1.0000
  C   C116      1.0  0.32174  0.07843  0.34672  1.0000
  H   H64       1.0  0.31789  0.03253  0.34610  1.0000
  H   H65       1.0  0.31672  0.12073  0.34714  1.0000
  C   C117      1.0  0.35662  0.26206  0.34635  1.0000
  C   C118      1.0  0.37255  0.26277  0.42851  1.0000
  C   C119      1.0  0.40275  0.26275  0.42868  1.0000
  C   C120      1.0  0.41815  0.26206  0.34681  1.0000
  O   O37       1.0  0.41409  0.25827  0.50921  1.0000
  H   H66       1.0  0.43296  0.27983  0.52559  1.0000
  O   O38       1.0  0.35666  0.25829  0.50890  1.0000
  H   H67       1.0  0.35913  0.27978  0.52494  1.0000
  C   C121      1.0  0.41817  0.15925  0.34666  1.0000
  C   C122      1.0  0.40269  0.14341  0.42877  1.0000
  C   C123      1.0  0.37247  0.11320  0.42883  1.0000
  C   C124      1.0  0.35664  0.09773  0.34676  1.0000
  O   O39       1.0  0.35654  0.10198  0.50926  1.0000
  H   H68       1.0  0.35893  0.08294  0.52572  1.0000
  O   O40       1.0  0.41396  0.15934  0.50919  1.0000
  H   H69       1.0  0.43302  0.15698  0.52550  1.0000
  C   C125      1.0  0.43748  0.69415  0.34675  1.0000
  C   C126      1.0  0.47241  0.71202  0.34648  1.0000
  H   H70       1.0  0.48338  0.69799  0.34625  1.0000
  C   C127      1.0  0.32172  0.74648  0.34616  1.0000
  H   H71       1.0  0.31787  0.78853  0.34697  1.0000
  C   C128      1.0  0.40276  0.76250  0.26461  1.0000
  C   C129      1.0  0.37254  0.76249  0.26438  1.0000
  O   O41       1.0  0.41410  0.75790  0.18424  1.0000
  O   O42       1.0  0.35668  0.75785  0.18384  1.0000
  H   H72       1.0  0.43315  0.77935  0.16803  1.0000
  H   H73       1.0  0.35908  0.77929  0.16747  1.0000
  C   C130      1.0  0.37266  0.61297  0.26470  1.0000
  C   C131      1.0  0.40286  0.64319  0.26469  1.0000
  O   O43       1.0  0.35683  0.60157  0.18420  1.0000
  O   O44       1.0  0.41428  0.65901  0.18422  1.0000
  H   H74       1.0  0.35928  0.58252  0.16828  1.0000
  H   H75       1.0  0.43313  0.65629  0.16794  1.0000
  C   C132      1.0  0.49162  0.74739  0.34660  1.0000
  C   C133      1.0  0.47240  0.76355  0.34672  1.0000
  C   C134      1.0  0.43748  0.74649  0.34677  1.0000
  C   C135      1.0  0.42052  0.71184  0.34687  1.0000
  H   H76       1.0  0.48337  0.78855  0.34676  1.0000
  H   H77       1.0  0.39518  0.69917  0.34693  1.0000
  H   H78       1.0  0.31669  0.69915  0.34570  1.0000
  C   C136      1.0  0.32174  0.57843  0.34672  1.0000
  H   H79       1.0  0.31789  0.53253  0.34610  1.0000
  H   H80       1.0  0.31672  0.62073  0.34714  1.0000
  C   C137      1.0  0.35662  0.76206  0.34635  1.0000
  C   C138      1.0  0.37255  0.76277  0.42851  1.0000
  C   C139      1.0  0.40275  0.76274  0.42868  1.0000
  C   C140      1.0  0.41815  0.76206  0.34681  1.0000
  O   O45       1.0  0.41409  0.75828  0.50921  1.0000
  H   H81       1.0  0.43297  0.77983  0.52559  1.0000
  O   O46       1.0  0.35666  0.75829  0.50890  1.0000
  H   H82       1.0  0.35913  0.77978  0.52494  1.0000
  C   C141      1.0  0.41817  0.65925  0.34666  1.0000
  C   C142      1.0  0.40269  0.64341  0.42877  1.0000
  C   C143      1.0  0.37247  0.61320  0.42883  1.0000
  C   C144      1.0  0.35664  0.59774  0.34676  1.0000
  O   O47       1.0  0.35654  0.60198  0.50926  1.0000
  H   H83       1.0  0.35893  0.58294  0.52572  1.0000
  O   O48       1.0  0.41396  0.65934  0.50919  1.0000
  H   H84       1.0  0.43302  0.65698  0.52550  1.0000
  C   C145      1.0  0.93748  0.19414  0.34675  1.0000
  C   C146      1.0  0.97240  0.21202  0.34648  1.0000
  H   H85       1.0  0.98338  0.19799  0.34626  1.0000
  C   C147      1.0  0.54666  0.30068  0.34643  1.0000
  C   C148      1.0  0.58158  0.31855  0.34629  1.0000
  H   H86       1.0  0.53569  0.31470  0.34643  1.0000
  C   C149      1.0  0.82172  0.24648  0.34616  1.0000
  C   C150      1.0  0.80385  0.26353  0.34668  1.0000
  H   H87       1.0  0.81787  0.28852  0.34697  1.0000
  C   C151      1.0  0.71517  0.24912  0.34683  1.0000
  C   C152      1.0  0.69730  0.26617  0.34685  1.0000
  H   H88       1.0  0.70114  0.22412  0.34678  1.0000
  C   C153      1.0  0.76939  0.07843  0.34665  1.0000
  C   C154      1.0  0.75233  0.04351  0.34638  1.0000
  H   H89       1.0  0.72734  0.03254  0.34630  1.0000
  C   C155      1.0  0.76674  0.46926  0.34633  1.0000
  C   C156      1.0  0.74969  0.43434  0.34677  1.0000
  H   H90       1.0  0.79174  0.48023  0.34618  1.0000
  C   C157      1.0  0.61635  0.25013  0.26453  1.0000
  C   C158      1.0  0.64656  0.25013  0.26466  1.0000
  O   O49       1.0  0.60507  0.25471  0.18402  1.0000
  O   O50       1.0  0.66248  0.25466  0.18430  1.0000
  H   H91       1.0  0.58598  0.23327  0.16789  1.0000
  H   H92       1.0  0.65987  0.23314  0.16793  1.0000
  C   C159      1.0  0.76600  0.36947  0.26492  1.0000
  C   C160      1.0  0.76600  0.39968  0.26489  1.0000
  O   O51       1.0  0.76153  0.35364  0.18441  1.0000
  O   O52       1.0  0.76157  0.41107  0.18438  1.0000
  H   H93       1.0  0.78304  0.35615  0.16831  1.0000
  H   H94       1.0  0.78314  0.42992  0.16803  1.0000
  C   C161      1.0  0.64649  0.39966  0.26470  1.0000
  C   C162      1.0  0.61627  0.36946  0.26442  1.0000
  O   O53       1.0  0.66238  0.41111  0.18431  1.0000
  O   O54       1.0  0.60499  0.35365  0.18386  1.0000
  H   H95       1.0  0.65976  0.43003  0.16813  1.0000
  H   H96       1.0  0.58598  0.35611  0.16764  1.0000
  C   C163      1.0  0.90276  0.26250  0.26461  1.0000
  C   C164      1.0  0.87254  0.26249  0.26438  1.0000
  O   O55       1.0  0.91410  0.25790  0.18424  1.0000
  O   O56       1.0  0.85668  0.25785  0.18384  1.0000
  H   H97       1.0  0.93315  0.27936  0.16803  1.0000
  H   H98       1.0  0.85908  0.27929  0.16747  1.0000
  C   C165      1.0  0.75333  0.14333  0.26433  1.0000
  C   C166      1.0  0.75335  0.11312  0.26455  1.0000
  O   O57       1.0  0.75792  0.15917  0.18380  1.0000
  O   O58       1.0  0.75790  0.10174  0.18419  1.0000
  H   H99       1.0  0.73649  0.15683  0.16762  1.0000
  H   H100      1.0  0.73639  0.08281  0.16782  1.0000
  C   C167      1.0  0.87265  0.11296  0.26470  1.0000
  C   C168      1.0  0.90286  0.14318  0.26469  1.0000
  O   O59       1.0  0.85683  0.10157  0.18420  1.0000
  O   O60       1.0  0.91428  0.15901  0.18422  1.0000
  H   H101      1.0  0.85928  0.08253  0.16828  1.0000
  H   H102      1.0  0.93313  0.15629  0.16794  1.0000
  C   C169      1.0  0.99161  0.24739  0.34660  1.0000
  C   C170      1.0  0.97240  0.26355  0.34672  1.0000
  C   C171      1.0  0.93748  0.24649  0.34677  1.0000
  C   C172      1.0  0.92052  0.21184  0.34687  1.0000
  H   H103      1.0  0.98337  0.28854  0.34676  1.0000
  H   H104      1.0  0.89518  0.19917  0.34693  1.0000
  C   C173      1.0  0.52745  0.26530  0.34654  1.0000
  C   C174      1.0  0.59855  0.30086  0.34620  1.0000
  C   C175      1.0  0.58159  0.26620  0.34637  1.0000
  C   C176      1.0  0.54667  0.24915  0.34664  1.0000
  H   H105      1.0  0.62389  0.31353  0.34614  1.0000
  H   H106      1.0  0.53570  0.22415  0.34689  1.0000
  C   C177      1.0  0.76847  0.24737  0.34671  1.0000
  C   C178      1.0  0.75231  0.21200  0.34665  1.0000
  C   C179      1.0  0.76936  0.19413  0.34614  1.0000
  C   C180      1.0  0.80402  0.21182  0.34587  1.0000
  H   H107      1.0  0.72731  0.19797  0.34689  1.0000
  H   H108      1.0  0.81669  0.19915  0.34570  1.0000
  C   C181      1.0  0.75055  0.26527  0.34681  1.0000
  C   C182      1.0  0.71500  0.30083  0.34695  1.0000
  C   C183      1.0  0.74966  0.31851  0.34690  1.0000
  C   C184      1.0  0.76671  0.30064  0.34674  1.0000
  H   H109      1.0  0.70234  0.31350  0.34698  1.0000
  H   H110      1.0  0.79171  0.31467  0.34662  1.0000
  C   C185      1.0  0.76849  0.02430  0.34626  1.0000
  C   C186      1.0  0.80387  0.04351  0.34627  1.0000
  C   C187      1.0  0.82174  0.07843  0.34672  1.0000
  C   C188      1.0  0.80405  0.09539  0.34693  1.0000
  H   H111      1.0  0.81789  0.03253  0.34610  1.0000
  H   H112      1.0  0.81672  0.12073  0.34714  1.0000
  C   C189      1.0  0.75057  0.48846  0.34627  1.0000
  C   C190      1.0  0.71503  0.41737  0.34701  1.0000
  C   C191      1.0  0.69733  0.43433  0.34673  1.0000
  C   C192      1.0  0.71520  0.46925  0.34635  1.0000
  H   H113      1.0  0.70237  0.39204  0.34723  1.0000
  H   H114      1.0  0.70117  0.48022  0.34620  1.0000
  C   C193      1.0  0.66240  0.25060  0.34684  1.0000
  C   C194      1.0  0.64642  0.24999  0.42884  1.0000
  C   C195      1.0  0.61621  0.24999  0.42870  1.0000
  C   C196      1.0  0.60092  0.25062  0.34658  1.0000
  O   O61       1.0  0.60479  0.25448  0.50907  1.0000
  H   H115      1.0  0.58589  0.23293  0.52538  1.0000
  O   O62       1.0  0.66225  0.25445  0.50932  1.0000
  H   H116      1.0  0.65968  0.23292  0.52552  1.0000
  C   C197      1.0  0.76527  0.41504  0.34680  1.0000
  C   C198      1.0  0.76570  0.39955  0.42881  1.0000
  C   C199      1.0  0.76569  0.36933  0.42884  1.0000
  C   C200      1.0  0.76525  0.35340  0.34687  1.0000
  O   O63       1.0  0.76102  0.35343  0.50931  1.0000
  H   H117      1.0  0.78247  0.35589  0.52581  1.0000
  O   O64       1.0  0.76104  0.41080  0.50926  1.0000
  H   H118      1.0  0.78247  0.42985  0.52561  1.0000
  C   C201      1.0  0.60089  0.35345  0.34635  1.0000
  C   C202      1.0  0.61620  0.36928  0.42855  1.0000
  C   C203      1.0  0.64643  0.39948  0.42868  1.0000
  C   C204      1.0  0.66245  0.41500  0.34681  1.0000
  O   O65       1.0  0.66227  0.41077  0.50919  1.0000
  H   H119      1.0  0.65962  0.42964  0.52573  1.0000
  O   O66       1.0  0.60484  0.35336  0.50893  1.0000
  H   H120      1.0  0.58578  0.35576  0.52506  1.0000
  C   C205      1.0  0.85662  0.26206  0.34635  1.0000
  C   C206      1.0  0.87255  0.26277  0.42851  1.0000
  C   C207      1.0  0.90275  0.26275  0.42868  1.0000
  C   C208      1.0  0.91815  0.26206  0.34681  1.0000
  O   O67       1.0  0.91409  0.25827  0.50921  1.0000
  H   H121      1.0  0.93297  0.27983  0.52559  1.0000
  O   O68       1.0  0.85665  0.25829  0.50890  1.0000
  H   H122      1.0  0.85913  0.27978  0.52494  1.0000
  C   C209      1.0  0.75381  0.09774  0.34674  1.0000
  C   C210      1.0  0.75313  0.11312  0.42864  1.0000
  C   C211      1.0  0.75309  0.14331  0.42848  1.0000
  C   C212      1.0  0.75377  0.15923  0.34633  1.0000
  O   O69       1.0  0.75754  0.15921  0.50885  1.0000
  H   H123      1.0  0.73598  0.15654  0.52509  1.0000
  O   O70       1.0  0.75759  0.10176  0.50915  1.0000
  H   H124      1.0  0.73606  0.08284  0.52540  1.0000
  C   C213      1.0  0.91817  0.15925  0.34666  1.0000
  C   C214      1.0  0.90269  0.14341  0.42877  1.0000
  C   C215      1.0  0.87247  0.11320  0.42883  1.0000
  C   C216      1.0  0.85664  0.09773  0.34676  1.0000
  O   O71       1.0  0.85654  0.10198  0.50926  1.0000
  H   H125      1.0  0.85893  0.08294  0.52572  1.0000
  O   O72       1.0  0.91396  0.15934  0.50919  1.0000
  H   H126      1.0  0.93302  0.15698  0.52550  1.0000
  C   C217      1.0  0.93748  0.69415  0.34675  1.0000
  C   C218      1.0  0.97241  0.71202  0.34648  1.0000
  H   H127      1.0  0.98338  0.69799  0.34625  1.0000
  C   C219      1.0  0.54666  0.80067  0.34643  1.0000
  C   C220      1.0  0.58158  0.81855  0.34629  1.0000
  H   H128      1.0  0.53568  0.81469  0.34643  1.0000
  C   C221      1.0  0.82172  0.74648  0.34616  1.0000
  C   C222      1.0  0.80385  0.76353  0.34668  1.0000
  H   H129      1.0  0.81787  0.78853  0.34697  1.0000
  C   C223      1.0  0.71517  0.74912  0.34683  1.0000
  C   C224      1.0  0.69730  0.76617  0.34686  1.0000
  H   H130      1.0  0.70114  0.72412  0.34678  1.0000
  C   C225      1.0  0.76939  0.57843  0.34665  1.0000
  C   C226      1.0  0.75233  0.54351  0.34638  1.0000
  H   H131      1.0  0.72734  0.53254  0.34630  1.0000
  C   C227      1.0  0.76674  0.96926  0.34633  1.0000
  C   C228      1.0  0.74969  0.93434  0.34677  1.0000
  H   H132      1.0  0.79173  0.98023  0.34618  1.0000
  C   C229      1.0  0.61634  0.75013  0.26453  1.0000
  C   C230      1.0  0.64656  0.75013  0.26466  1.0000
  O   O73       1.0  0.60507  0.75470  0.18402  1.0000
  O   O74       1.0  0.66249  0.75467  0.18430  1.0000
  H   H133      1.0  0.58598  0.73327  0.16789  1.0000
  H   H134      1.0  0.65987  0.73314  0.16793  1.0000
  C   C231      1.0  0.76600  0.86947  0.26492  1.0000
  C   C232      1.0  0.76600  0.89968  0.26489  1.0000
  O   O75       1.0  0.76153  0.85364  0.18441  1.0000
  O   O76       1.0  0.76157  0.91107  0.18438  1.0000
  H   H135      1.0  0.78304  0.85615  0.16831  1.0000
  H   H136      1.0  0.78314  0.92992  0.16803  1.0000
  C   C233      1.0  0.64649  0.89966  0.26470  1.0000
  C   C234      1.0  0.61627  0.86945  0.26442  1.0000
  O   O77       1.0  0.66239  0.91111  0.18431  1.0000
  O   O78       1.0  0.60500  0.85365  0.18386  1.0000
  H   H137      1.0  0.65976  0.93003  0.16813  1.0000
  H   H138      1.0  0.58598  0.85611  0.16764  1.0000
  C   C235      1.0  0.90276  0.76250  0.26461  1.0000
  C   C236      1.0  0.87254  0.76249  0.26438  1.0000
  O   O79       1.0  0.91411  0.75790  0.18424  1.0000
  O   O80       1.0  0.85668  0.75785  0.18384  1.0000
  H   H139      1.0  0.93315  0.77935  0.16803  1.0000
  H   H140      1.0  0.85908  0.77929  0.16747  1.0000
  C   C237      1.0  0.75333  0.64333  0.26433  1.0000
  C   C238      1.0  0.75335  0.61312  0.26455  1.0000
  O   O81       1.0  0.75792  0.65917  0.18380  1.0000
  O   O82       1.0  0.75790  0.60174  0.18419  1.0000
  H   H141      1.0  0.73649  0.65683  0.16762  1.0000
  H   H142      1.0  0.73639  0.58281  0.16782  1.0000
  C   C239      1.0  0.87266  0.61297  0.26470  1.0000
  C   C240      1.0  0.90286  0.64319  0.26469  1.0000
  O   O83       1.0  0.85683  0.60157  0.18420  1.0000
  O   O84       1.0  0.91428  0.65901  0.18422  1.0000
  H   H143      1.0  0.85928  0.58252  0.16828  1.0000
  H   H144      1.0  0.93313  0.65629  0.16794  1.0000
  C   C241      1.0  0.99162  0.74739  0.34660  1.0000
  C   C242      1.0  0.97240  0.76355  0.34672  1.0000
  C   C243      1.0  0.93748  0.74649  0.34677  1.0000
  C   C244      1.0  0.92052  0.71184  0.34687  1.0000
  H   H145      1.0  0.98337  0.78855  0.34676  1.0000
  H   H146      1.0  0.89518  0.69917  0.34693  1.0000
  C   C245      1.0  0.52745  0.76530  0.34654  1.0000
  C   C246      1.0  0.59855  0.80086  0.34620  1.0000
  C   C247      1.0  0.58160  0.76620  0.34637  1.0000
  C   C248      1.0  0.54667  0.74915  0.34664  1.0000
  H   H147      1.0  0.62389  0.81353  0.34614  1.0000
  H   H148      1.0  0.53570  0.72415  0.34689  1.0000
  C   C249      1.0  0.76847  0.74737  0.34671  1.0000
  C   C250      1.0  0.75231  0.71200  0.34665  1.0000
  C   C251      1.0  0.76936  0.69413  0.34614  1.0000
  C   C252      1.0  0.80402  0.71182  0.34587  1.0000
  H   H149      1.0  0.72731  0.69798  0.34689  1.0000
  H   H150      1.0  0.81669  0.69915  0.34570  1.0000
  C   C253      1.0  0.75054  0.76527  0.34681  1.0000
  C   C254      1.0  0.71500  0.80083  0.34695  1.0000
  C   C255      1.0  0.74966  0.81851  0.34690  1.0000
  C   C256      1.0  0.76671  0.80064  0.34674  1.0000
  H   H151      1.0  0.70234  0.81350  0.34698  1.0000
  H   H152      1.0  0.79171  0.81467  0.34662  1.0000
  C   C257      1.0  0.76849  0.52430  0.34626  1.0000
  C   C258      1.0  0.80387  0.54351  0.34627  1.0000
  C   C259      1.0  0.82174  0.57843  0.34672  1.0000
  C   C260      1.0  0.80405  0.59539  0.34693  1.0000
  H   H153      1.0  0.81789  0.53253  0.34610  1.0000
  H   H154      1.0  0.81672  0.62073  0.34714  1.0000
  C   C261      1.0  0.75057  0.98847  0.34627  1.0000
  C   C262      1.0  0.71504  0.91738  0.34701  1.0000
  C   C263      1.0  0.69733  0.93433  0.34673  1.0000
  C   C264      1.0  0.71520  0.96925  0.34635  1.0000
  H   H155      1.0  0.70237  0.89204  0.34723  1.0000
  H   H156      1.0  0.70117  0.98022  0.34620  1.0000
  C   C265      1.0  0.66240  0.75060  0.34684  1.0000
  C   C266      1.0  0.64642  0.74999  0.42884  1.0000
  C   C267      1.0  0.61621  0.74999  0.42870  1.0000
  C   C268      1.0  0.60092  0.75062  0.34658  1.0000
  O   O85       1.0  0.60479  0.75448  0.50907  1.0000
  H   H157      1.0  0.58589  0.73293  0.52538  1.0000
  O   O86       1.0  0.66225  0.75445  0.50932  1.0000
  H   H158      1.0  0.65968  0.73292  0.52552  1.0000
  C   C269      1.0  0.76527  0.91504  0.34680  1.0000
  C   C270      1.0  0.76570  0.89955  0.42881  1.0000
  C   C271      1.0  0.76569  0.86933  0.42884  1.0000
  C   C272      1.0  0.76525  0.85340  0.34687  1.0000
  O   O87       1.0  0.76102  0.85343  0.50931  1.0000
  H   H159      1.0  0.78247  0.85589  0.52581  1.0000
  O   O88       1.0  0.76104  0.91080  0.50926  1.0000
  H   H160      1.0  0.78247  0.92985  0.52561  1.0000
  C   C273      1.0  0.60089  0.85345  0.34635  1.0000
  C   C274      1.0  0.61620  0.86928  0.42855  1.0000
  C   C275      1.0  0.64643  0.89948  0.42868  1.0000
  C   C276      1.0  0.66245  0.91500  0.34681  1.0000
  O   O89       1.0  0.66227  0.91077  0.50919  1.0000
  H   H161      1.0  0.65962  0.92964  0.52573  1.0000
  O   O90       1.0  0.60484  0.85336  0.50893  1.0000
  H   H162      1.0  0.58578  0.85576  0.52506  1.0000
  C   C277      1.0  0.85662  0.76206  0.34635  1.0000
  C   C278      1.0  0.87256  0.76277  0.42851  1.0000
  C   C279      1.0  0.90275  0.76274  0.42868  1.0000
  C   C280      1.0  0.91815  0.76206  0.34681  1.0000
  O   O91       1.0  0.91409  0.75828  0.50921  1.0000
  H   H163      1.0  0.93297  0.77983  0.52559  1.0000
  O   O92       1.0  0.85666  0.75829  0.50890  1.0000
  H   H164      1.0  0.85913  0.77978  0.52494  1.0000
  C   C281      1.0  0.75381  0.59774  0.34674  1.0000
  C   C282      1.0  0.75313  0.61312  0.42864  1.0000
  C   C283      1.0  0.75309  0.64331  0.42848  1.0000
  C   C284      1.0  0.75377  0.65923  0.34633  1.0000
  O   O93       1.0  0.75754  0.65921  0.50885  1.0000
  H   H165      1.0  0.73599  0.65654  0.52509  1.0000
  O   O94       1.0  0.75759  0.60176  0.50915  1.0000
  H   H166      1.0  0.73606  0.58284  0.52540  1.0000
  C   C285      1.0  0.91817  0.65925  0.34666  1.0000
  C   C286      1.0  0.90269  0.64341  0.42877  1.0000
  C   C287      1.0  0.87247  0.61320  0.42883  1.0000
  C   C288      1.0  0.85664  0.59774  0.34676  1.0000
  O   O95       1.0  0.85654  0.60198  0.50926  1.0000
  H   H167      1.0  0.85893  0.58294  0.52572  1.0000
  O   O96       1.0  0.91396  0.65934  0.50919  1.0000
  H   H168      1.0  0.93302  0.65698  0.52550  1.0000
